* NGSPICE file created from adder.ext - technology: sky130A

* Black-box entry subcircuit for sky130_fd_sc_hd__decap_12 abstract view
.subckt sky130_fd_sc_hd__decap_12 VGND VNB VPB VPWR
.ends

* Black-box entry subcircuit for sky130_fd_sc_hd__a2bb2o_4 abstract view
.subckt sky130_fd_sc_hd__a2bb2o_4 A1_N A2_N B1 B2 VGND VNB VPB VPWR X
.ends

* Black-box entry subcircuit for sky130_fd_sc_hd__tapvpwrvgnd_1 abstract view
.subckt sky130_fd_sc_hd__tapvpwrvgnd_1 VGND VPWR
.ends

* Black-box entry subcircuit for sky130_fd_sc_hd__decap_4 abstract view
.subckt sky130_fd_sc_hd__decap_4 VGND VNB VPB VPWR
.ends

* Black-box entry subcircuit for sky130_fd_sc_hd__decap_6 abstract view
.subckt sky130_fd_sc_hd__decap_6 VGND VNB VPB VPWR
.ends

* Black-box entry subcircuit for sky130_fd_sc_hd__o22a_4 abstract view
.subckt sky130_fd_sc_hd__o22a_4 A1 A2 B1 B2 VGND VNB VPB VPWR X
.ends

* Black-box entry subcircuit for sky130_fd_sc_hd__decap_8 abstract view
.subckt sky130_fd_sc_hd__decap_8 VGND VNB VPB VPWR
.ends

* Black-box entry subcircuit for sky130_fd_sc_hd__fill_1 abstract view
.subckt sky130_fd_sc_hd__fill_1 VGND VNB VPB VPWR
.ends

* Black-box entry subcircuit for sky130_fd_sc_hd__fill_2 abstract view
.subckt sky130_fd_sc_hd__fill_2 VGND VNB VPB VPWR
.ends

* Black-box entry subcircuit for sky130_fd_sc_hd__and2_4 abstract view
.subckt sky130_fd_sc_hd__and2_4 A B VGND VNB VPB VPWR X
.ends

* Black-box entry subcircuit for sky130_fd_sc_hd__decap_3 abstract view
.subckt sky130_fd_sc_hd__decap_3 VGND VNB VPB VPWR
.ends

* Black-box entry subcircuit for sky130_fd_sc_hd__buf_2 abstract view
.subckt sky130_fd_sc_hd__buf_2 A VGND VNB VPB VPWR X
.ends

* Black-box entry subcircuit for sky130_fd_sc_hd__o21a_4 abstract view
.subckt sky130_fd_sc_hd__o21a_4 A1 A2 B1 VGND VNB VPB VPWR X
.ends

* Black-box entry subcircuit for sky130_fd_sc_hd__inv_2 abstract view
.subckt sky130_fd_sc_hd__inv_2 A VGND VNB VPB VPWR Y
.ends

.subckt adder ci co i0[0] i0[1] i0[2] i0[3] i0[4] i0[5] i0[6] i0[7] i1[0] i1[1] i1[2]
+ i1[3] i1[4] i1[5] i1[6] i1[7] s[0] s[1] s[2] s[3] s[4] s[5] s[6] s[7] VPWR VGND
XFILLER_22_166 VGND VGND VPWR VPWR sky130_fd_sc_hd__decap_12
XFILLER_9_159 VGND VGND VPWR VPWR sky130_fd_sc_hd__decap_12
XFILLER_13_166 VGND VGND VPWR VPWR sky130_fd_sc_hd__decap_12
XFILLER_6_129 VGND VGND VPWR VPWR sky130_fd_sc_hd__decap_12
XFILLER_12_32 VGND VGND VPWR VPWR sky130_fd_sc_hd__decap_12
XFILLER_5_184 VGND VGND VPWR VPWR sky130_fd_sc_hd__decap_12
XFILLER_23_86 VGND VGND VPWR VPWR sky130_fd_sc_hd__decap_12
XFILLER_2_154 VGND VGND VPWR VPWR sky130_fd_sc_hd__decap_12
X_49_ i0[7] i1[7] i0[7] i1[7] VGND VGND VPWR VPWR _49_/X sky130_fd_sc_hd__a2bb2o_4
XFILLER_29_74 VGND VGND VPWR VPWR sky130_fd_sc_hd__decap_12
XFILLER_20_32 VGND VGND VPWR VPWR sky130_fd_sc_hd__decap_12
XFILLER_6_56 VGND VGND VPWR VPWR sky130_fd_sc_hd__decap_12
XFILLER_13_3 VGND VGND VPWR VPWR sky130_fd_sc_hd__decap_12
XFILLER_1_208 VGND VGND VPWR VPWR sky130_fd_sc_hd__decap_12
XPHY_192 VGND VPWR sky130_fd_sc_hd__tapvpwrvgnd_1
XFILLER_31_167 VGND VGND VPWR VPWR sky130_fd_sc_hd__decap_12
XFILLER_31_123 VGND VGND VPWR VPWR sky130_fd_sc_hd__decap_4
XFILLER_31_86 VGND VGND VPWR VPWR sky130_fd_sc_hd__decap_12
XPHY_181 VGND VPWR sky130_fd_sc_hd__tapvpwrvgnd_1
XPHY_170 VGND VPWR sky130_fd_sc_hd__tapvpwrvgnd_1
XFILLER_22_178 VGND VGND VPWR VPWR sky130_fd_sc_hd__decap_12
XFILLER_13_178 VGND VGND VPWR VPWR sky130_fd_sc_hd__decap_4
XFILLER_18_215 VGND VGND VPWR VPWR sky130_fd_sc_hd__decap_6
XFILLER_12_44 VGND VGND VPWR VPWR sky130_fd_sc_hd__decap_12
XFILLER_5_196 VGND VGND VPWR VPWR sky130_fd_sc_hd__decap_12
XFILLER_23_98 VGND VGND VPWR VPWR sky130_fd_sc_hd__decap_12
XFILLER_2_166 VGND VGND VPWR VPWR sky130_fd_sc_hd__decap_12
X_48_ i0[7] i1[7] _45_/X _47_/X VGND VGND VPWR VPWR co sky130_fd_sc_hd__o22a_4
XFILLER_18_32 VGND VGND VPWR VPWR sky130_fd_sc_hd__decap_12
XFILLER_29_86 VGND VGND VPWR VPWR sky130_fd_sc_hd__decap_12
XFILLER_29_42 VGND VGND VPWR VPWR sky130_fd_sc_hd__decap_12
XFILLER_20_44 VGND VGND VPWR VPWR sky130_fd_sc_hd__decap_12
XFILLER_34_110 VGND VGND VPWR VPWR sky130_fd_sc_hd__decap_8
XFILLER_19_184 VGND VGND VPWR VPWR sky130_fd_sc_hd__decap_12
XFILLER_6_68 VGND VGND VPWR VPWR sky130_fd_sc_hd__decap_12
XFILLER_25_110 VGND VGND VPWR VPWR sky130_fd_sc_hd__decap_12
XPHY_193 VGND VPWR sky130_fd_sc_hd__tapvpwrvgnd_1
XFILLER_31_179 VGND VGND VPWR VPWR sky130_fd_sc_hd__decap_4
XFILLER_31_98 VGND VGND VPWR VPWR sky130_fd_sc_hd__decap_12
XPHY_182 VGND VPWR sky130_fd_sc_hd__tapvpwrvgnd_1
XPHY_171 VGND VPWR sky130_fd_sc_hd__tapvpwrvgnd_1
XPHY_160 VGND VPWR sky130_fd_sc_hd__tapvpwrvgnd_1
XFILLER_16_154 VGND VGND VPWR VPWR sky130_fd_sc_hd__decap_12
XFILLER_16_121 VGND VGND VPWR VPWR sky130_fd_sc_hd__fill_1
XFILLER_30_190 VGND VGND VPWR VPWR sky130_fd_sc_hd__decap_12
XFILLER_26_32 VGND VGND VPWR VPWR sky130_fd_sc_hd__decap_12
XFILLER_12_190 VGND VGND VPWR VPWR sky130_fd_sc_hd__decap_8
XFILLER_10_105 VGND VGND VPWR VPWR sky130_fd_sc_hd__decap_12
XFILLER_12_56 VGND VGND VPWR VPWR sky130_fd_sc_hd__decap_12
XFILLER_33_208 VGND VGND VPWR VPWR sky130_fd_sc_hd__decap_12
XFILLER_3_3 VGND VGND VPWR VPWR sky130_fd_sc_hd__decap_12
XFILLER_2_178 VGND VGND VPWR VPWR sky130_fd_sc_hd__decap_12
XFILLER_0_15 VGND VGND VPWR VPWR sky130_fd_sc_hd__decap_12
XFILLER_36_3 VGND VGND VPWR VPWR sky130_fd_sc_hd__decap_6
X_47_ i1[6] i0[6] _46_/X _43_/X VGND VGND VPWR VPWR _47_/X sky130_fd_sc_hd__o22a_4
XFILLER_18_44 VGND VGND VPWR VPWR sky130_fd_sc_hd__decap_12
XFILLER_20_56 VGND VGND VPWR VPWR sky130_fd_sc_hd__decap_12
XFILLER_29_98 VGND VGND VPWR VPWR sky130_fd_sc_hd__decap_12
XFILLER_29_54 VGND VGND VPWR VPWR sky130_fd_sc_hd__decap_6
XFILLER_28_141 VGND VGND VPWR VPWR sky130_fd_sc_hd__decap_12
XFILLER_19_196 VGND VGND VPWR VPWR sky130_fd_sc_hd__decap_6
XFILLER_16_166 VGND VGND VPWR VPWR sky130_fd_sc_hd__fill_2
XPHY_194 VGND VPWR sky130_fd_sc_hd__tapvpwrvgnd_1
XPHY_183 VGND VPWR sky130_fd_sc_hd__tapvpwrvgnd_1
XPHY_172 VGND VPWR sky130_fd_sc_hd__tapvpwrvgnd_1
XPHY_161 VGND VPWR sky130_fd_sc_hd__tapvpwrvgnd_1
XPHY_150 VGND VPWR sky130_fd_sc_hd__tapvpwrvgnd_1
XFILLER_26_44 VGND VGND VPWR VPWR sky130_fd_sc_hd__decap_12
XFILLER_3_59 VGND VGND VPWR VPWR sky130_fd_sc_hd__fill_2
XFILLER_3_15 VGND VGND VPWR VPWR sky130_fd_sc_hd__decap_12
XFILLER_10_117 VGND VGND VPWR VPWR sky130_fd_sc_hd__decap_12
XFILLER_12_68 VGND VGND VPWR VPWR sky130_fd_sc_hd__decap_12
XFILLER_18_206 VGND VGND VPWR VPWR sky130_fd_sc_hd__decap_8
XFILLER_5_110 VGND VGND VPWR VPWR sky130_fd_sc_hd__decap_12
XFILLER_4_80 VGND VGND VPWR VPWR sky130_fd_sc_hd__decap_12
XFILLER_23_220 VGND VGND VPWR VPWR sky130_fd_sc_hd__fill_1
XFILLER_0_27 VGND VGND VPWR VPWR sky130_fd_sc_hd__decap_4
XFILLER_29_3 VGND VGND VPWR VPWR sky130_fd_sc_hd__decap_4
X_46_ i1[6] i0[6] VGND VGND VPWR VPWR _46_/X sky130_fd_sc_hd__and2_4
XFILLER_18_56 VGND VGND VPWR VPWR sky130_fd_sc_hd__decap_12
X_29_ i0[0] i1[0] ci _28_/X VGND VGND VPWR VPWR _29_/X sky130_fd_sc_hd__o22a_4
XFILLER_29_22 VGND VGND VPWR VPWR sky130_fd_sc_hd__decap_8
XFILLER_20_68 VGND VGND VPWR VPWR sky130_fd_sc_hd__decap_12
XFILLER_6_15 VGND VGND VPWR VPWR sky130_fd_sc_hd__decap_12
XFILLER_34_134 VGND VGND VPWR VPWR sky130_fd_sc_hd__decap_12
XFILLER_25_123 VGND VGND VPWR VPWR sky130_fd_sc_hd__decap_12
XFILLER_0_211 VGND VGND VPWR VPWR sky130_fd_sc_hd__decap_6
XPHY_195 VGND VPWR sky130_fd_sc_hd__tapvpwrvgnd_1
XPHY_184 VGND VPWR sky130_fd_sc_hd__tapvpwrvgnd_1
XPHY_173 VGND VPWR sky130_fd_sc_hd__tapvpwrvgnd_1
XPHY_162 VGND VPWR sky130_fd_sc_hd__tapvpwrvgnd_1
XPHY_151 VGND VPWR sky130_fd_sc_hd__tapvpwrvgnd_1
XPHY_140 VGND VPWR sky130_fd_sc_hd__tapvpwrvgnd_1
XFILLER_11_3 VGND VGND VPWR VPWR sky130_fd_sc_hd__decap_12
XFILLER_26_56 VGND VGND VPWR VPWR sky130_fd_sc_hd__decap_12
XFILLER_26_23 VGND VGND VPWR VPWR sky130_fd_sc_hd__decap_8
XFILLER_36_218 VGND VGND VPWR VPWR sky130_fd_sc_hd__decap_3
XFILLER_3_27 VGND VGND VPWR VPWR sky130_fd_sc_hd__decap_12
XFILLER_8_141 VGND VGND VPWR VPWR sky130_fd_sc_hd__decap_12
XFILLER_10_129 VGND VGND VPWR VPWR sky130_fd_sc_hd__decap_12
XFILLER_9_15 VGND VGND VPWR VPWR sky130_fd_sc_hd__decap_12
XFILLER_9_59 VGND VGND VPWR VPWR sky130_fd_sc_hd__fill_2
XFILLER_20_202 VGND VGND VPWR VPWR sky130_fd_sc_hd__decap_12
XFILLER_18_68 VGND VGND VPWR VPWR sky130_fd_sc_hd__decap_12
X_45_ i0[7] i1[7] VGND VGND VPWR VPWR _45_/X sky130_fd_sc_hd__and2_4
XFILLER_11_213 VGND VGND VPWR VPWR sky130_fd_sc_hd__decap_8
X_28_ i0[0] i1[0] VGND VGND VPWR VPWR _28_/X sky130_fd_sc_hd__and2_4
XFILLER_28_154 VGND VGND VPWR VPWR sky130_fd_sc_hd__decap_12
XFILLER_34_146 VGND VGND VPWR VPWR sky130_fd_sc_hd__decap_6
XFILLER_19_110 VGND VGND VPWR VPWR sky130_fd_sc_hd__decap_12
XFILLER_3_220 VGND VGND VPWR VPWR sky130_fd_sc_hd__fill_1
XFILLER_6_27 VGND VGND VPWR VPWR sky130_fd_sc_hd__decap_4
XFILLER_10_80 VGND VGND VPWR VPWR sky130_fd_sc_hd__decap_12
XFILLER_25_135 VGND VGND VPWR VPWR sky130_fd_sc_hd__decap_12
XPHY_196 VGND VPWR sky130_fd_sc_hd__tapvpwrvgnd_1
XPHY_185 VGND VPWR sky130_fd_sc_hd__tapvpwrvgnd_1
XPHY_174 VGND VPWR sky130_fd_sc_hd__tapvpwrvgnd_1
XFILLER_24_190 VGND VGND VPWR VPWR sky130_fd_sc_hd__decap_12
XPHY_163 VGND VPWR sky130_fd_sc_hd__tapvpwrvgnd_1
XPHY_152 VGND VPWR sky130_fd_sc_hd__tapvpwrvgnd_1
XPHY_141 VGND VPWR sky130_fd_sc_hd__tapvpwrvgnd_1
XPHY_130 VGND VPWR sky130_fd_sc_hd__tapvpwrvgnd_1
XFILLER_22_105 VGND VGND VPWR VPWR sky130_fd_sc_hd__decap_12
XFILLER_26_68 VGND VGND VPWR VPWR sky130_fd_sc_hd__decap_12
XFILLER_21_171 VGND VGND VPWR VPWR sky130_fd_sc_hd__decap_12
XFILLER_3_39 VGND VGND VPWR VPWR sky130_fd_sc_hd__decap_12
XFILLER_27_208 VGND VGND VPWR VPWR sky130_fd_sc_hd__decap_12
Xpsn_inst_psn_buff_0 _43_/X VGND VGND VPWR VPWR _44_/A2_N sky130_fd_sc_hd__buf_2
XFILLER_12_15 VGND VGND VPWR VPWR sky130_fd_sc_hd__decap_12
XFILLER_5_123 VGND VGND VPWR VPWR sky130_fd_sc_hd__decap_12
XFILLER_4_93 VGND VGND VPWR VPWR sky130_fd_sc_hd__decap_12
XFILLER_9_27 VGND VGND VPWR VPWR sky130_fd_sc_hd__decap_12
X_44_ _41_/X _44_/A2_N _41_/X _44_/B2 VGND VGND VPWR VPWR s[6] sky130_fd_sc_hd__a2bb2o_4
XFILLER_1_3 VGND VGND VPWR VPWR sky130_fd_sc_hd__decap_12
X_27_ i0[1] i1[1] VGND VGND VPWR VPWR _27_/X sky130_fd_sc_hd__and2_4
XFILLER_28_166 VGND VGND VPWR VPWR sky130_fd_sc_hd__decap_12
XFILLER_20_15 VGND VGND VPWR VPWR sky130_fd_sc_hd__decap_12
XFILLER_34_158 VGND VGND VPWR VPWR sky130_fd_sc_hd__decap_12
XFILLER_31_58 VGND VGND VPWR VPWR sky130_fd_sc_hd__decap_3
XFILLER_31_14 VGND VGND VPWR VPWR sky130_fd_sc_hd__decap_8
XFILLER_25_147 VGND VGND VPWR VPWR sky130_fd_sc_hd__decap_12
XFILLER_15_59 VGND VGND VPWR VPWR sky130_fd_sc_hd__fill_2
XFILLER_15_15 VGND VGND VPWR VPWR sky130_fd_sc_hd__decap_12
XPHY_197 VGND VPWR sky130_fd_sc_hd__tapvpwrvgnd_1
XPHY_186 VGND VPWR sky130_fd_sc_hd__tapvpwrvgnd_1
XPHY_175 VGND VPWR sky130_fd_sc_hd__tapvpwrvgnd_1
XPHY_164 VGND VPWR sky130_fd_sc_hd__tapvpwrvgnd_1
XPHY_153 VGND VPWR sky130_fd_sc_hd__tapvpwrvgnd_1
XPHY_142 VGND VPWR sky130_fd_sc_hd__tapvpwrvgnd_1
XPHY_131 VGND VPWR sky130_fd_sc_hd__tapvpwrvgnd_1
XPHY_120 VGND VPWR sky130_fd_sc_hd__tapvpwrvgnd_1
XFILLER_22_117 VGND VGND VPWR VPWR sky130_fd_sc_hd__decap_12
XPHY_0 VGND VGND VPWR VPWR sky130_fd_sc_hd__decap_3
XFILLER_16_80 VGND VGND VPWR VPWR sky130_fd_sc_hd__decap_12
XFILLER_8_154 VGND VGND VPWR VPWR sky130_fd_sc_hd__decap_12
XFILLER_35_220 VGND VGND VPWR VPWR sky130_fd_sc_hd__fill_1
XFILLER_12_27 VGND VGND VPWR VPWR sky130_fd_sc_hd__decap_4
Xpsn_inst_psn_buff_1 _43_/X VGND VGND VPWR VPWR _44_/B2 sky130_fd_sc_hd__buf_2
XFILLER_5_135 VGND VGND VPWR VPWR sky130_fd_sc_hd__decap_12
XFILLER_23_59 VGND VGND VPWR VPWR sky130_fd_sc_hd__fill_2
XFILLER_23_15 VGND VGND VPWR VPWR sky130_fd_sc_hd__decap_12
XFILLER_4_190 VGND VGND VPWR VPWR sky130_fd_sc_hd__decap_12
Xpsn_inst_psn_buff_30 _30_/X VGND VGND VPWR VPWR psn_inst_psn_buff_27/A sky130_fd_sc_hd__buf_2
XFILLER_2_105 VGND VGND VPWR VPWR sky130_fd_sc_hd__decap_12
XFILLER_9_39 VGND VGND VPWR VPWR sky130_fd_sc_hd__decap_12
XFILLER_13_92 VGND VGND VPWR VPWR sky130_fd_sc_hd__fill_1
XFILLER_20_215 VGND VGND VPWR VPWR sky130_fd_sc_hd__decap_6
XFILLER_1_171 VGND VGND VPWR VPWR sky130_fd_sc_hd__decap_12
X_43_ i1[5] i0[5] _42_/X _39_/X VGND VGND VPWR VPWR _43_/X sky130_fd_sc_hd__o22a_4
XFILLER_34_47 VGND VGND VPWR VPWR sky130_fd_sc_hd__decap_12
XFILLER_34_36 VGND VGND VPWR VPWR sky130_fd_sc_hd__decap_8
XFILLER_18_15 VGND VGND VPWR VPWR sky130_fd_sc_hd__decap_12
XFILLER_7_208 VGND VGND VPWR VPWR sky130_fd_sc_hd__decap_12
XFILLER_27_3 VGND VGND VPWR VPWR sky130_fd_sc_hd__decap_3
XFILLER_24_80 VGND VGND VPWR VPWR sky130_fd_sc_hd__decap_12
X_26_ i0[2] i1[2] VGND VGND VPWR VPWR _26_/X sky130_fd_sc_hd__and2_4
XFILLER_20_27 VGND VGND VPWR VPWR sky130_fd_sc_hd__decap_4
XFILLER_1_62 VGND VGND VPWR VPWR sky130_fd_sc_hd__decap_12
XFILLER_1_51 VGND VGND VPWR VPWR sky130_fd_sc_hd__decap_8
XFILLER_28_178 VGND VGND VPWR VPWR sky130_fd_sc_hd__decap_12
XFILLER_19_123 VGND VGND VPWR VPWR sky130_fd_sc_hd__decap_12
XFILLER_10_93 VGND VGND VPWR VPWR sky130_fd_sc_hd__decap_12
XFILLER_33_181 VGND VGND VPWR VPWR sky130_fd_sc_hd__fill_2
XFILLER_25_159 VGND VGND VPWR VPWR sky130_fd_sc_hd__decap_12
XFILLER_15_27 VGND VGND VPWR VPWR sky130_fd_sc_hd__decap_12
XPHY_198 VGND VPWR sky130_fd_sc_hd__tapvpwrvgnd_1
XPHY_187 VGND VPWR sky130_fd_sc_hd__tapvpwrvgnd_1
XFILLER_31_26 VGND VGND VPWR VPWR sky130_fd_sc_hd__decap_8
XPHY_176 VGND VPWR sky130_fd_sc_hd__tapvpwrvgnd_1
XPHY_165 VGND VPWR sky130_fd_sc_hd__tapvpwrvgnd_1
XPHY_154 VGND VPWR sky130_fd_sc_hd__tapvpwrvgnd_1
XPHY_143 VGND VPWR sky130_fd_sc_hd__tapvpwrvgnd_1
XFILLER_16_126 VGND VGND VPWR VPWR sky130_fd_sc_hd__decap_8
XPHY_132 VGND VPWR sky130_fd_sc_hd__tapvpwrvgnd_1
XPHY_110 VGND VPWR sky130_fd_sc_hd__tapvpwrvgnd_1
XPHY_121 VGND VPWR sky130_fd_sc_hd__tapvpwrvgnd_1
XFILLER_22_129 VGND VGND VPWR VPWR sky130_fd_sc_hd__decap_12
XPHY_1 VGND VGND VPWR VPWR sky130_fd_sc_hd__decap_3
XFILLER_26_15 VGND VGND VPWR VPWR sky130_fd_sc_hd__decap_4
XFILLER_21_184 VGND VGND VPWR VPWR sky130_fd_sc_hd__decap_12
XFILLER_8_166 VGND VGND VPWR VPWR sky130_fd_sc_hd__decap_12
Xpsn_inst_psn_buff_2 _39_/X VGND VGND VPWR VPWR _40_/A2_N sky130_fd_sc_hd__buf_2
XFILLER_5_147 VGND VGND VPWR VPWR sky130_fd_sc_hd__decap_12
XFILLER_32_202 VGND VGND VPWR VPWR sky130_fd_sc_hd__decap_12
Xpsn_inst_psn_buff_31 psn_inst_psn_buff_31/A VGND VGND VPWR VPWR psn_inst_psn_buff_31/X
+ sky130_fd_sc_hd__buf_2
Xpsn_inst_psn_buff_20 psn_inst_psn_buff_20/A VGND VGND VPWR VPWR psn_inst_psn_buff_20/X
+ sky130_fd_sc_hd__buf_2
XFILLER_23_27 VGND VGND VPWR VPWR sky130_fd_sc_hd__decap_12
XFILLER_2_117 VGND VGND VPWR VPWR sky130_fd_sc_hd__decap_12
XFILLER_29_7 VGND VGND VPWR VPWR sky130_fd_sc_hd__fill_1
X_42_ i1[5] i0[5] VGND VGND VPWR VPWR _42_/X sky130_fd_sc_hd__and2_4
XFILLER_34_59 VGND VGND VPWR VPWR sky130_fd_sc_hd__decap_12
XFILLER_18_27 VGND VGND VPWR VPWR sky130_fd_sc_hd__decap_4
XFILLER_1_74 VGND VGND VPWR VPWR sky130_fd_sc_hd__decap_12
X_25_ i1[3] i0[3] i1[3] i0[3] VGND VGND VPWR VPWR _25_/X sky130_fd_sc_hd__a2bb2o_4
XFILLER_34_105 VGND VGND VPWR VPWR sky130_fd_sc_hd__fill_1
XFILLER_19_135 VGND VGND VPWR VPWR sky130_fd_sc_hd__decap_12
XFILLER_31_38 VGND VGND VPWR VPWR sky130_fd_sc_hd__decap_8
XFILLER_16_138 VGND VGND VPWR VPWR sky130_fd_sc_hd__decap_12
XFILLER_15_39 VGND VGND VPWR VPWR sky130_fd_sc_hd__decap_12
XPHY_100 VGND VPWR sky130_fd_sc_hd__tapvpwrvgnd_1
XPHY_199 VGND VPWR sky130_fd_sc_hd__tapvpwrvgnd_1
XPHY_188 VGND VPWR sky130_fd_sc_hd__tapvpwrvgnd_1
XPHY_177 VGND VPWR sky130_fd_sc_hd__tapvpwrvgnd_1
XPHY_166 VGND VPWR sky130_fd_sc_hd__tapvpwrvgnd_1
XPHY_155 VGND VPWR sky130_fd_sc_hd__tapvpwrvgnd_1
XPHY_144 VGND VPWR sky130_fd_sc_hd__tapvpwrvgnd_1
XPHY_133 VGND VPWR sky130_fd_sc_hd__tapvpwrvgnd_1
XPHY_2 VGND VGND VPWR VPWR sky130_fd_sc_hd__decap_3
XPHY_111 VGND VPWR sky130_fd_sc_hd__tapvpwrvgnd_1
XPHY_122 VGND VPWR sky130_fd_sc_hd__tapvpwrvgnd_1
XFILLER_30_141 VGND VGND VPWR VPWR sky130_fd_sc_hd__decap_12
XFILLER_21_196 VGND VGND VPWR VPWR sky130_fd_sc_hd__decap_12
XFILLER_7_51 VGND VGND VPWR VPWR sky130_fd_sc_hd__decap_8
XFILLER_7_62 VGND VGND VPWR VPWR sky130_fd_sc_hd__decap_12
XFILLER_16_93 VGND VGND VPWR VPWR sky130_fd_sc_hd__decap_12
XFILLER_8_178 VGND VGND VPWR VPWR sky130_fd_sc_hd__decap_12
XFILLER_12_141 VGND VGND VPWR VPWR sky130_fd_sc_hd__decap_12
Xpsn_inst_psn_buff_3 _39_/X VGND VGND VPWR VPWR _40_/B2 sky130_fd_sc_hd__buf_2
XFILLER_5_159 VGND VGND VPWR VPWR sky130_fd_sc_hd__decap_12
Xpsn_inst_psn_buff_21 psn_inst_psn_buff_21/A VGND VGND VPWR VPWR psn_inst_psn_buff_17/A
+ sky130_fd_sc_hd__buf_2
Xpsn_inst_psn_buff_10 psn_inst_psn_buff_10/A VGND VGND VPWR VPWR _52_/A sky130_fd_sc_hd__buf_2
Xpsn_inst_psn_buff_32 psn_inst_psn_buff_32/A VGND VGND VPWR VPWR psn_inst_psn_buff_32/X
+ sky130_fd_sc_hd__buf_2
XFILLER_23_39 VGND VGND VPWR VPWR sky130_fd_sc_hd__decap_12
XFILLER_2_129 VGND VGND VPWR VPWR sky130_fd_sc_hd__decap_12
XFILLER_36_9 VGND VGND VPWR VPWR sky130_fd_sc_hd__fill_1
XFILLER_1_184 VGND VGND VPWR VPWR sky130_fd_sc_hd__decap_12
X_41_ i1[6] i0[6] i1[6] i0[6] VGND VGND VPWR VPWR _41_/X sky130_fd_sc_hd__a2bb2o_4
XFILLER_24_93 VGND VGND VPWR VPWR sky130_fd_sc_hd__decap_12
XFILLER_1_86 VGND VGND VPWR VPWR sky130_fd_sc_hd__decap_12
XFILLER_36_180 VGND VGND VPWR VPWR sky130_fd_sc_hd__decap_6
XFILLER_32_3 VGND VGND VPWR VPWR sky130_fd_sc_hd__decap_3
XFILLER_19_147 VGND VGND VPWR VPWR sky130_fd_sc_hd__decap_12
XFILLER_33_161 VGND VGND VPWR VPWR sky130_fd_sc_hd__decap_12
XFILLER_18_191 VGND VGND VPWR VPWR sky130_fd_sc_hd__decap_8
XPHY_189 VGND VPWR sky130_fd_sc_hd__tapvpwrvgnd_1
XPHY_178 VGND VPWR sky130_fd_sc_hd__tapvpwrvgnd_1
XPHY_167 VGND VPWR sky130_fd_sc_hd__tapvpwrvgnd_1
XPHY_156 VGND VPWR sky130_fd_sc_hd__tapvpwrvgnd_1
XPHY_145 VGND VPWR sky130_fd_sc_hd__tapvpwrvgnd_1
XPHY_134 VGND VPWR sky130_fd_sc_hd__tapvpwrvgnd_1
XPHY_101 VGND VPWR sky130_fd_sc_hd__tapvpwrvgnd_1
XPHY_112 VGND VPWR sky130_fd_sc_hd__tapvpwrvgnd_1
XPHY_123 VGND VPWR sky130_fd_sc_hd__tapvpwrvgnd_1
XPHY_3 VGND VGND VPWR VPWR sky130_fd_sc_hd__decap_3
XFILLER_7_74 VGND VGND VPWR VPWR sky130_fd_sc_hd__decap_12
XFILLER_13_109 VGND VGND VPWR VPWR sky130_fd_sc_hd__decap_12
XFILLER_29_220 VGND VGND VPWR VPWR sky130_fd_sc_hd__fill_1
XFILLER_32_93 VGND VGND VPWR VPWR sky130_fd_sc_hd__decap_12
XFILLER_32_60 VGND VGND VPWR VPWR sky130_fd_sc_hd__decap_12
Xpsn_inst_psn_buff_4 psn_inst_psn_buff_4/A VGND VGND VPWR VPWR _36_/A2_N sky130_fd_sc_hd__buf_2
XFILLER_32_215 VGND VGND VPWR VPWR sky130_fd_sc_hd__decap_6
Xpsn_inst_psn_buff_33 _29_/X VGND VGND VPWR VPWR psn_inst_psn_buff_31/A sky130_fd_sc_hd__buf_2
Xpsn_inst_psn_buff_22 psn_inst_psn_buff_22/A VGND VGND VPWR VPWR psn_inst_psn_buff_18/A
+ sky130_fd_sc_hd__buf_2
Xpsn_inst_psn_buff_11 psn_inst_psn_buff_15/X VGND VGND VPWR VPWR psn_inst_psn_buff_4/A
+ sky130_fd_sc_hd__buf_2
X_40_ _37_/X _40_/A2_N _37_/X _40_/B2 VGND VGND VPWR VPWR s[5] sky130_fd_sc_hd__a2bb2o_4
XFILLER_14_215 VGND VGND VPWR VPWR sky130_fd_sc_hd__decap_6
XFILLER_1_196 VGND VGND VPWR VPWR sky130_fd_sc_hd__decap_12
XFILLER_13_51 VGND VGND VPWR VPWR sky130_fd_sc_hd__decap_8
XFILLER_13_62 VGND VGND VPWR VPWR sky130_fd_sc_hd__decap_12
XFILLER_34_17 VGND VGND VPWR VPWR sky130_fd_sc_hd__decap_12
XFILLER_1_98 VGND VGND VPWR VPWR sky130_fd_sc_hd__decap_12
XFILLER_35_60 VGND VGND VPWR VPWR sky130_fd_sc_hd__fill_1
XFILLER_19_159 VGND VGND VPWR VPWR sky130_fd_sc_hd__decap_12
XFILLER_33_184 VGND VGND VPWR VPWR sky130_fd_sc_hd__decap_12
XFILLER_33_173 VGND VGND VPWR VPWR sky130_fd_sc_hd__decap_8
XFILLER_25_3 VGND VGND VPWR VPWR sky130_fd_sc_hd__decap_12
XPHY_179 VGND VPWR sky130_fd_sc_hd__tapvpwrvgnd_1
XPHY_168 VGND VPWR sky130_fd_sc_hd__tapvpwrvgnd_1
XPHY_157 VGND VPWR sky130_fd_sc_hd__tapvpwrvgnd_1
XFILLER_21_62 VGND VGND VPWR VPWR sky130_fd_sc_hd__decap_12
XFILLER_21_51 VGND VGND VPWR VPWR sky130_fd_sc_hd__decap_8
XPHY_146 VGND VPWR sky130_fd_sc_hd__tapvpwrvgnd_1
XPHY_135 VGND VPWR sky130_fd_sc_hd__tapvpwrvgnd_1
XPHY_102 VGND VPWR sky130_fd_sc_hd__tapvpwrvgnd_1
XPHY_113 VGND VPWR sky130_fd_sc_hd__tapvpwrvgnd_1
XPHY_124 VGND VPWR sky130_fd_sc_hd__tapvpwrvgnd_1
XFILLER_30_154 VGND VGND VPWR VPWR sky130_fd_sc_hd__decap_12
XFILLER_15_184 VGND VGND VPWR VPWR sky130_fd_sc_hd__fill_1
XPHY_4 VGND VGND VPWR VPWR sky130_fd_sc_hd__decap_3
XFILLER_7_86 VGND VGND VPWR VPWR sky130_fd_sc_hd__decap_12
XFILLER_21_110 VGND VGND VPWR VPWR sky130_fd_sc_hd__decap_12
XFILLER_32_72 VGND VGND VPWR VPWR sky130_fd_sc_hd__decap_12
XFILLER_12_154 VGND VGND VPWR VPWR sky130_fd_sc_hd__decap_12
XFILLER_12_198 VGND VGND VPWR VPWR sky130_fd_sc_hd__fill_1
XFILLER_26_202 VGND VGND VPWR VPWR sky130_fd_sc_hd__decap_12
Xpsn_inst_psn_buff_5 _35_/X VGND VGND VPWR VPWR _36_/B2 sky130_fd_sc_hd__buf_2
XFILLER_17_213 VGND VGND VPWR VPWR sky130_fd_sc_hd__decap_8
Xpsn_inst_psn_buff_12 psn_inst_psn_buff_12/A VGND VGND VPWR VPWR psn_inst_psn_buff_7/A
+ sky130_fd_sc_hd__buf_2
Xpsn_inst_psn_buff_34 psn_inst_psn_buff_35/X VGND VGND VPWR VPWR psn_inst_psn_buff_32/A
+ sky130_fd_sc_hd__buf_2
Xpsn_inst_psn_buff_23 _35_/X VGND VGND VPWR VPWR psn_inst_psn_buff_23/X sky130_fd_sc_hd__buf_2
XFILLER_4_32 VGND VGND VPWR VPWR sky130_fd_sc_hd__decap_12
XFILLER_13_74 VGND VGND VPWR VPWR sky130_fd_sc_hd__decap_12
XFILLER_9_220 VGND VGND VPWR VPWR sky130_fd_sc_hd__fill_1
XFILLER_34_29 VGND VGND VPWR VPWR sky130_fd_sc_hd__fill_2
XFILLER_28_105 VGND VGND VPWR VPWR sky130_fd_sc_hd__decap_12
XFILLER_27_171 VGND VGND VPWR VPWR sky130_fd_sc_hd__decap_12
XFILLER_19_62 VGND VGND VPWR VPWR sky130_fd_sc_hd__decap_12
XFILLER_19_51 VGND VGND VPWR VPWR sky130_fd_sc_hd__decap_8
XFILLER_33_196 VGND VGND VPWR VPWR sky130_fd_sc_hd__decap_12
XFILLER_18_3 VGND VGND VPWR VPWR sky130_fd_sc_hd__decap_12
XPHY_169 VGND VPWR sky130_fd_sc_hd__tapvpwrvgnd_1
XFILLER_24_141 VGND VGND VPWR VPWR sky130_fd_sc_hd__decap_12
XPHY_158 VGND VPWR sky130_fd_sc_hd__tapvpwrvgnd_1
XFILLER_21_74 VGND VGND VPWR VPWR sky130_fd_sc_hd__decap_12
XPHY_147 VGND VPWR sky130_fd_sc_hd__tapvpwrvgnd_1
XPHY_136 VGND VPWR sky130_fd_sc_hd__tapvpwrvgnd_1
XFILLER_0_218 VGND VGND VPWR VPWR sky130_fd_sc_hd__decap_3
XPHY_103 VGND VPWR sky130_fd_sc_hd__tapvpwrvgnd_1
XPHY_114 VGND VPWR sky130_fd_sc_hd__tapvpwrvgnd_1
XPHY_125 VGND VPWR sky130_fd_sc_hd__tapvpwrvgnd_1
XFILLER_30_166 VGND VGND VPWR VPWR sky130_fd_sc_hd__decap_12
XFILLER_15_163 VGND VGND VPWR VPWR sky130_fd_sc_hd__decap_12
XFILLER_15_141 VGND VGND VPWR VPWR sky130_fd_sc_hd__decap_8
XPHY_5 VGND VGND VPWR VPWR sky130_fd_sc_hd__decap_3
XFILLER_7_98 VGND VGND VPWR VPWR sky130_fd_sc_hd__decap_12
XFILLER_32_84 VGND VGND VPWR VPWR sky130_fd_sc_hd__decap_8
XFILLER_12_166 VGND VGND VPWR VPWR sky130_fd_sc_hd__decap_12
XFILLER_27_62 VGND VGND VPWR VPWR sky130_fd_sc_hd__decap_12
Xpsn_inst_psn_buff_6 _31_/X VGND VGND VPWR VPWR _32_/B2 sky130_fd_sc_hd__buf_2
XFILLER_4_44 VGND VGND VPWR VPWR sky130_fd_sc_hd__decap_12
Xpsn_inst_psn_buff_24 psn_inst_psn_buff_24/A VGND VGND VPWR VPWR psn_inst_psn_buff_20/A
+ sky130_fd_sc_hd__buf_2
Xpsn_inst_psn_buff_13 psn_inst_psn_buff_13/A VGND VGND VPWR VPWR psn_inst_psn_buff_8/A
+ sky130_fd_sc_hd__buf_2
Xpsn_inst_psn_buff_35 _28_/X VGND VGND VPWR VPWR psn_inst_psn_buff_35/X sky130_fd_sc_hd__buf_2
XFILLER_14_206 VGND VGND VPWR VPWR sky130_fd_sc_hd__decap_8
XFILLER_13_86 VGND VGND VPWR VPWR sky130_fd_sc_hd__decap_6
XFILLER_1_110 VGND VGND VPWR VPWR sky130_fd_sc_hd__decap_12
XFILLER_6_202 VGND VGND VPWR VPWR sky130_fd_sc_hd__decap_12
XFILLER_28_117 VGND VGND VPWR VPWR sky130_fd_sc_hd__decap_12
XFILLER_19_74 VGND VGND VPWR VPWR sky130_fd_sc_hd__decap_12
XFILLER_10_32 VGND VGND VPWR VPWR sky130_fd_sc_hd__decap_12
XFILLER_35_62 VGND VGND VPWR VPWR sky130_fd_sc_hd__decap_12
XPHY_159 VGND VPWR sky130_fd_sc_hd__tapvpwrvgnd_1
XPHY_148 VGND VPWR sky130_fd_sc_hd__tapvpwrvgnd_1
XPHY_137 VGND VPWR sky130_fd_sc_hd__tapvpwrvgnd_1
XFILLER_16_109 VGND VGND VPWR VPWR sky130_fd_sc_hd__decap_12
XPHY_104 VGND VPWR sky130_fd_sc_hd__tapvpwrvgnd_1
XPHY_115 VGND VPWR sky130_fd_sc_hd__tapvpwrvgnd_1
XPHY_126 VGND VPWR sky130_fd_sc_hd__tapvpwrvgnd_1
XFILLER_30_178 VGND VGND VPWR VPWR sky130_fd_sc_hd__decap_12
XFILLER_21_86 VGND VGND VPWR VPWR sky130_fd_sc_hd__decap_12
XFILLER_15_175 VGND VGND VPWR VPWR sky130_fd_sc_hd__decap_8
XFILLER_15_120 VGND VGND VPWR VPWR sky130_fd_sc_hd__fill_2
XPHY_6 VGND VGND VPWR VPWR sky130_fd_sc_hd__decap_3
XFILLER_30_3 VGND VGND VPWR VPWR sky130_fd_sc_hd__fill_1
XFILLER_21_123 VGND VGND VPWR VPWR sky130_fd_sc_hd__decap_12
XFILLER_8_105 VGND VGND VPWR VPWR sky130_fd_sc_hd__decap_12
XFILLER_12_101 VGND VGND VPWR VPWR sky130_fd_sc_hd__fill_2
XFILLER_12_178 VGND VGND VPWR VPWR sky130_fd_sc_hd__decap_12
XFILLER_7_171 VGND VGND VPWR VPWR sky130_fd_sc_hd__decap_12
Xpsn_inst_psn_buff_7 psn_inst_psn_buff_7/A VGND VGND VPWR VPWR _58_/B1 sky130_fd_sc_hd__buf_2
XFILLER_26_215 VGND VGND VPWR VPWR sky130_fd_sc_hd__decap_6
XFILLER_27_74 VGND VGND VPWR VPWR sky130_fd_sc_hd__decap_12
XFILLER_4_56 VGND VGND VPWR VPWR sky130_fd_sc_hd__decap_12
XFILLER_4_141 VGND VGND VPWR VPWR sky130_fd_sc_hd__decap_12
Xpsn_inst_psn_buff_25 psn_inst_psn_buff_25/A VGND VGND VPWR VPWR psn_inst_psn_buff_21/A
+ sky130_fd_sc_hd__buf_2
Xpsn_inst_psn_buff_14 psn_inst_psn_buff_18/X VGND VGND VPWR VPWR psn_inst_psn_buff_10/A
+ sky130_fd_sc_hd__buf_2
XFILLER_8_3 VGND VGND VPWR VPWR sky130_fd_sc_hd__decap_12
XFILLER_27_9 VGND VGND VPWR VPWR sky130_fd_sc_hd__decap_8
XFILLER_28_129 VGND VGND VPWR VPWR sky130_fd_sc_hd__decap_12
XFILLER_10_44 VGND VGND VPWR VPWR sky130_fd_sc_hd__decap_12
XFILLER_35_74 VGND VGND VPWR VPWR sky130_fd_sc_hd__decap_12
XFILLER_35_30 VGND VGND VPWR VPWR sky130_fd_sc_hd__decap_8
XFILLER_27_184 VGND VGND VPWR VPWR sky130_fd_sc_hd__decap_12
XFILLER_19_86 VGND VGND VPWR VPWR sky130_fd_sc_hd__decap_12
XFILLER_33_110 VGND VGND VPWR VPWR sky130_fd_sc_hd__decap_12
XPHY_105 VGND VPWR sky130_fd_sc_hd__tapvpwrvgnd_1
XPHY_116 VGND VPWR sky130_fd_sc_hd__tapvpwrvgnd_1
XFILLER_24_154 VGND VGND VPWR VPWR sky130_fd_sc_hd__decap_12
XFILLER_21_98 VGND VGND VPWR VPWR sky130_fd_sc_hd__decap_12
XPHY_149 VGND VPWR sky130_fd_sc_hd__tapvpwrvgnd_1
XPHY_138 VGND VPWR sky130_fd_sc_hd__tapvpwrvgnd_1
XPHY_7 VGND VGND VPWR VPWR sky130_fd_sc_hd__decap_3
XPHY_127 VGND VPWR sky130_fd_sc_hd__tapvpwrvgnd_1
XFILLER_23_3 VGND VGND VPWR VPWR sky130_fd_sc_hd__decap_12
XFILLER_21_135 VGND VGND VPWR VPWR sky130_fd_sc_hd__decap_12
XFILLER_20_190 VGND VGND VPWR VPWR sky130_fd_sc_hd__decap_12
XFILLER_16_32 VGND VGND VPWR VPWR sky130_fd_sc_hd__decap_12
XFILLER_8_117 VGND VGND VPWR VPWR sky130_fd_sc_hd__decap_12
Xpsn_inst_psn_buff_8 psn_inst_psn_buff_8/A VGND VGND VPWR VPWR _56_/B1 sky130_fd_sc_hd__buf_2
XFILLER_27_86 VGND VGND VPWR VPWR sky130_fd_sc_hd__decap_12
XFILLER_4_68 VGND VGND VPWR VPWR sky130_fd_sc_hd__decap_12
Xpsn_inst_psn_buff_26 psn_inst_psn_buff_26/A VGND VGND VPWR VPWR psn_inst_psn_buff_22/A
+ sky130_fd_sc_hd__buf_2
XFILLER_23_208 VGND VGND VPWR VPWR sky130_fd_sc_hd__decap_12
Xpsn_inst_psn_buff_15 psn_inst_psn_buff_15/A VGND VGND VPWR VPWR psn_inst_psn_buff_15/X
+ sky130_fd_sc_hd__buf_2
XFILLER_1_123 VGND VGND VPWR VPWR sky130_fd_sc_hd__decap_12
XFILLER_24_32 VGND VGND VPWR VPWR sky130_fd_sc_hd__decap_12
XFILLER_6_215 VGND VGND VPWR VPWR sky130_fd_sc_hd__decap_6
XFILLER_10_56 VGND VGND VPWR VPWR sky130_fd_sc_hd__decap_12
XFILLER_35_86 VGND VGND VPWR VPWR sky130_fd_sc_hd__decap_12
XFILLER_35_42 VGND VGND VPWR VPWR sky130_fd_sc_hd__decap_12
XFILLER_27_196 VGND VGND VPWR VPWR sky130_fd_sc_hd__decap_12
XFILLER_19_98 VGND VGND VPWR VPWR sky130_fd_sc_hd__decap_12
XFILLER_18_141 VGND VGND VPWR VPWR sky130_fd_sc_hd__decap_12
XFILLER_24_166 VGND VGND VPWR VPWR sky130_fd_sc_hd__decap_12
XPHY_139 VGND VPWR sky130_fd_sc_hd__tapvpwrvgnd_1
XPHY_106 VGND VPWR sky130_fd_sc_hd__tapvpwrvgnd_1
XPHY_117 VGND VPWR sky130_fd_sc_hd__tapvpwrvgnd_1
XPHY_128 VGND VPWR sky130_fd_sc_hd__tapvpwrvgnd_1
XFILLER_16_3 VGND VGND VPWR VPWR sky130_fd_sc_hd__decap_12
XPHY_8 VGND VGND VPWR VPWR sky130_fd_sc_hd__decap_3
XFILLER_21_147 VGND VGND VPWR VPWR sky130_fd_sc_hd__decap_12
XFILLER_16_44 VGND VGND VPWR VPWR sky130_fd_sc_hd__decap_12
XFILLER_8_129 VGND VGND VPWR VPWR sky130_fd_sc_hd__decap_12
Xpsn_inst_psn_buff_9 psn_inst_psn_buff_8/A VGND VGND VPWR VPWR _56_/A2_N sky130_fd_sc_hd__buf_2
XFILLER_7_184 VGND VGND VPWR VPWR sky130_fd_sc_hd__decap_12
XFILLER_27_98 VGND VGND VPWR VPWR sky130_fd_sc_hd__decap_12
XFILLER_27_21 VGND VGND VPWR VPWR sky130_fd_sc_hd__decap_8
XFILLER_4_154 VGND VGND VPWR VPWR sky130_fd_sc_hd__decap_12
Xpsn_inst_psn_buff_16 psn_inst_psn_buff_20/X VGND VGND VPWR VPWR psn_inst_psn_buff_12/A
+ sky130_fd_sc_hd__buf_2
Xpsn_inst_psn_buff_27 psn_inst_psn_buff_27/A VGND VGND VPWR VPWR psn_inst_psn_buff_24/A
+ sky130_fd_sc_hd__buf_2
XFILLER_31_220 VGND VGND VPWR VPWR sky130_fd_sc_hd__fill_1
XFILLER_1_135 VGND VGND VPWR VPWR sky130_fd_sc_hd__decap_12
XFILLER_24_44 VGND VGND VPWR VPWR sky130_fd_sc_hd__decap_12
XFILLER_1_59 VGND VGND VPWR VPWR sky130_fd_sc_hd__fill_2
XFILLER_1_15 VGND VGND VPWR VPWR sky130_fd_sc_hd__decap_12
XFILLER_36_131 VGND VGND VPWR VPWR sky130_fd_sc_hd__decap_8
XFILLER_35_98 VGND VGND VPWR VPWR sky130_fd_sc_hd__decap_12
XFILLER_35_54 VGND VGND VPWR VPWR sky130_fd_sc_hd__decap_6
XFILLER_3_208 VGND VGND VPWR VPWR sky130_fd_sc_hd__decap_12
XFILLER_10_68 VGND VGND VPWR VPWR sky130_fd_sc_hd__decap_12
XFILLER_18_186 VGND VGND VPWR VPWR sky130_fd_sc_hd__fill_1
XFILLER_24_178 VGND VGND VPWR VPWR sky130_fd_sc_hd__decap_12
XPHY_129 VGND VPWR sky130_fd_sc_hd__tapvpwrvgnd_1
XFILLER_2_80 VGND VGND VPWR VPWR sky130_fd_sc_hd__decap_12
XPHY_107 VGND VPWR sky130_fd_sc_hd__tapvpwrvgnd_1
XPHY_118 VGND VPWR sky130_fd_sc_hd__tapvpwrvgnd_1
XFILLER_15_189 VGND VGND VPWR VPWR sky130_fd_sc_hd__decap_8
XFILLER_15_123 VGND VGND VPWR VPWR sky130_fd_sc_hd__fill_2
XPHY_9 VGND VGND VPWR VPWR sky130_fd_sc_hd__decap_3
XFILLER_21_159 VGND VGND VPWR VPWR sky130_fd_sc_hd__decap_12
XFILLER_16_56 VGND VGND VPWR VPWR sky130_fd_sc_hd__decap_12
XFILLER_7_196 VGND VGND VPWR VPWR sky130_fd_sc_hd__decap_12
XFILLER_27_33 VGND VGND VPWR VPWR sky130_fd_sc_hd__decap_12
Xpsn_inst_psn_buff_28 psn_inst_psn_buff_31/X VGND VGND VPWR VPWR psn_inst_psn_buff_25/A
+ sky130_fd_sc_hd__buf_2
Xpsn_inst_psn_buff_17 psn_inst_psn_buff_17/A VGND VGND VPWR VPWR psn_inst_psn_buff_13/A
+ sky130_fd_sc_hd__buf_2