*SPEF "IEEE 1481-1998"
*DESIGN "adder"
*DATE "Fri Mar 26 12:34:29 2021"
*VENDOR "AUC CSCE Department"
*PROGRAM "SPEF Extractor"
*VERSION "1.0"
*DESIGN_FLOW "PIN_CAP NONE"
*DIVIDER /
*DELIMITER :
*BUS_DELIMITER []
*T_UNIT 1.00000 NS
*C_UNIT 1.00000 PF
*R_UNIT 1.00000 OHM
*L_UNIT 1.00000 HENRY


*NAME_MAP
*0 ci
*1 co
*2 i0[0]
*3 i0[1]
*4 i0[2]
*5 i0[3]
*6 i0[4]
*7 i0[5]
*8 i0[6]
*9 i0[7]
*10 i1[0]
*11 i1[1]
*12 i1[2]
*13 i1[3]
*14 i1[4]
*15 i1[5]
*16 i1[6]
*17 i1[7]
*18 s[0]
*19 s[1]
*20 s[2]
*21 s[3]
*22 s[4]
*23 s[5]
*24 s[6]
*25 s[7]
*26 _00_
*27 _01_
*28 _02_
*29 _03_
*30 _04_
*31 _05_
*32 _06_
*33 _07_
*34 _08_
*35 _09_
*36 _10_
*37 _11_
*38 _12_
*39 _13_
*40 _14_
*41 _15_
*42 _16_
*43 _17_
*44 _18_
*45 _19_
*46 _20_
*47 _21_
*48 _22_
*49 _23_
*50 _24_
*51 psn_net_0
*52 psn_net_1
*53 psn_net_2
*54 psn_net_3
*55 psn_net_4
*56 psn_net_5
*57 psn_net_6
*58 psn_net_7
*59 psn_net_8
*60 psn_net_9
*61 psn_net_10
*62 psn_net_11
*63 psn_net_12
*64 psn_net_13
*65 psn_net_14
*66 psn_net_15
*67 psn_net_16
*68 psn_net_17
*69 psn_net_18
*70 psn_net_19
*71 psn_net_20
*72 psn_net_21
*73 psn_net_22
*74 psn_net_23
*75 psn_net_24
*76 psn_net_25
*77 psn_net_26
*78 psn_net_27
*79 psn_net_28
*80 psn_net_29
*81 psn_net_30
*82 psn_net_31
*83 psn_net_32
*84 psn_net_33
*85 psn_net_34
*86 psn_net_35
*87 psn_net_36
*88 psn_net_37
*89 psn_net_38

*D_NET *0 0.0058256314766800005
*CONN
*P ci I
*I _29_:B1 I
*I _51_:A I
*CAP
0 *0:1 0.0004803295904
1 _51_:A 0.00040117644959999997
2 *0:3 0.0009903182348999999
3 *0:6 0.0012287709000800002
4 *0:7 0.0027250363017000006
5 _29_:B1 0
6 *0:2 0
7 *0:8 0
8 *0:5 0
*RES
0 *0:1 _29_:B1 0.30357142857142855
1 _51_:A *0:2 4.107142857142857
2 *0:3 *0:4 1.7656333333333334
3 *0:1 *0:5 4.517857142857142
4 *0:6 *0:7 13.964285714285714
5 *0:7 *0:8 31.116071428571427
6 _29_:B1 _29_:B1 0
7 *0:2 *0:6 0
8 _51_:A _51_:A 0
9 *0:8 *0:4 0
10 *0:5 *0:7 0
*END

*D_NET *1 0.00232226074872
*CONN
*P co O
*I _48_:X O
*CAP
9 *1:1 0.00097718645202
10 *1:3 0.0013450742967
11 _48_:X 0
12 *1:2 0
*RES
11 *1:1 *1:2 11.080357142857142
12 *1:3 *1:4 2.4142333333333332
13 _48_:X _48_:X 0
14 _48_:X *1:1 0
15 *1:2 *1:3 0
*END

*D_NET *2 0.0086850217349
*CONN
*P i0[0] I
*I _28_:A I
*I _53_:A1 I
*I _29_:A1 I
*CAP
13 _29_:A1 5.034052896000001e-05
14 *2:2 0.00043429369568000003
15 _53_:A1 8.932229792e-05
16 _28_:A 0.00040117644959999997
17 *2:3 0.00022243310784000002
18 *2:7 0.00043240382816000004
19 *2:10 8.223124824000001e-05
20 *2:12 0.0012949773337799998
21 *2:11 0.0056778432447200005
22 *2:1 0
23 *2:4 0
24 *2:5 0
25 *2:13 0
*RES
16 _29_:A1 *2:1 0.4107142857142857
17 *2:2 *2:3 4.857142857142857
18 _53_:A1 *2:4 0.8214285714285714
19 _28_:A *2:5 4.107142857142857
20 *2:3 *2:6 2.4285714285714284
21 *2:7 *2:8 4.107142857142857
22 *2:7 *2:9 0.6071428571428571
23 *2:10 *2:11 0.8214285714285714
24 *2:12 *2:10 14.723214285714283
25 *2:11 *2:8 64.96428571428571
26 _29_:A1 _29_:A1 0
27 *2:1 *2:3 0
28 *2:4 *2:2 0
29 _53_:A1 _53_:A1 0
30 _28_:A _28_:A 0
31 *2:5 *2:6 0
32 *2:13 *2:12 0
*END

*D_NET *3 0.0088386685053
*CONN
*P i0[1] I
*I _55_:B1 I
*I _55_:A1_N I
*I _30_:A1 I
*I _27_:A I
*CAP
26 _30_:A1 5.034052896000001e-05
27 *3:2 0.0013347011940000003
28 *3:4 8.932229792e-05
29 _55_:A1_N 8.932229792e-05
30 *3:7 0.00043429369568000003
31 *3:8 4.640188412000001e-05
32 _55_:B1 5.034052896000001e-05
33 *3:9 6.898398368e-05
34 *3:10 0.00032321291168
35 *3:12 0.00022243310784000002
36 *3:14 0.00040117644959999997
37 *3:16 0.0019305590973
38 *3:18 0.00379758052764
39 *3:1 0
40 *3:5 0
41 *3:6 0
42 *3:11 0
43 _27_:A 0
44 *3:15 0
*RES
33 _30_:A1 *3:1 0.4107142857142857
34 *3:2 *3:3 15.178571428571427
35 *3:4 *3:5 0.8214285714285714
36 _55_:A1_N *3:6 0.8214285714285714
37 *3:7 *3:8 4.857142857142857
38 *3:8 *3:2 0.4107142857142857
39 _55_:B1 *3:9 0.4107142857142857
40 *3:9 *3:10 0.6071428571428571
41 *3:10 *3:11 3.2857142857142856
42 *3:12 *3:13 2.4285714285714284
43 *3:14 *3:15 4.107142857142857
44 *3:16 *3:17 22.00892857142857
45 *3:18 *3:19 43.41071428571428
46 _30_:A1 _30_:A1 0
47 *3:1 *3:2 0
48 *3:5 *3:3 0
49 *3:4 *3:18 0
50 _55_:A1_N _55_:A1_N 0
51 *3:6 *3:7 0
52 _55_:B1 _55_:B1 0
53 *3:11 *3:20 0
54 _27_:A _27_:A 0
55 _27_:A *3:12 0
56 _55_:B1 *3:13 0
57 *3:15 *3:19 0
58 *3:14 *3:16 0
*END

*D_NET *4 0.0076348337421
*CONN
*P i0[2] I
*I _57_:B1 I
*I _57_:A1_N I
*I _31_:A1 I
*I _26_:A I
*CAP
45 _57_:B1 0.00012830406688
46 *4:1 0.00043429369568000003
47 _57_:A1_N 4.017137184e-05
48 *4:4 0.00028423114272
49 *4:5 0.00024891568132000004
50 *4:7 0.00014576891520000004
51 *4:2 0.00635314886846
52 _26_:A 0
53 _31_:A1 0
54 *4:11 0
*RES
59 _57_:B1 _57_:B1 1.232142857142857
60 *4:1 *4:2 4.857142857142857
61 _57_:A1_N *4:3 0.30357142857142855
62 *4:4 *4:3 2.875
63 *4:5 *4:6 2.7321428571428568
64 *4:7 *4:8 0.8214285714285714
65 *4:7 *4:9 0.6071428571428571
66 *4:2 *4:8 72.70535714285714
67 _26_:A _26_:A 0
68 _26_:A *4:2 0
69 _57_:B1 _57_:B1 0
70 _57_:B1 *4:1 0
71 _57_:A1_N _57_:A1_N 0
72 *4:4 *4:10 0
73 _31_:A1 _31_:A1 0
74 _31_:A1 *4:5 0
75 *4:11 *4:6 0
*END

*D_NET *5 0.00656245344462
*CONN
*P i0[3] I
*I _35_:A2 I
*I _34_:B I
*I _25_:B2 I
*I _25_:A2_N I
*CAP
55 _25_:B2 5.034052896000001e-05
56 *5:2 5.029638022e-05
57 *5:3 4.640188412000001e-05
58 *5:4 0.00039456983545999995
59 *5:6 0.00012949366976
60 *5:7 0.00024643897664
61 *5:8 0.00016946796088000002
62 *5:11 0.00018159827932
63 *5:5 0.00529384592926
64 _34_:B 0
65 *5:1 0
66 _25_:A2_N 0
67 _35_:A2 0
68 *5:10 0
*RES
76 _25_:B2 *5:1 0.4107142857142857
77 *5:2 *5:3 0.45535714285714285
78 *5:3 *5:4 0.4107142857142857
79 *5:4 *5:5 4.4017857142857135
80 *5:6 _25_:A2_N 0.30357142857142855
81 *5:7 *5:6 2.0535714285714284
82 *5:7 *5:1 0.30357142857142855
83 *5:8 *5:9 1.8214285714285714
84 *5:6 *5:10 0.8214285714285714
85 *5:11 *5:12 1.232142857142857
86 *5:11 *5:13 0.6071428571428571
87 *5:5 *5:12 60.56249999999999
88 _34_:B _34_:B 0
89 _34_:B *5:5 0
90 _25_:B2 _25_:B2 0
91 *5:1 *5:2 0
92 _25_:A2_N _25_:A2_N 0
93 _35_:A2 _35_:A2 0
94 _35_:A2 *5:8 0
95 *5:10 *5:9 0
*END

*D_NET *6 0.005670131724300001
*CONN
*P i0[4] I
*I _39_:A2 I
*I _38_:B I
*I _33_:B2 I
*I _33_:A2_N I
*CAP
69 *6:1 0.00015388997648
70 *6:2 6.353766696000002e-05
71 _38_:B 0.00020745720768000002
72 *6:5 0.00028423114272
73 *6:6 8.932229792e-05
74 *6:7 0.00019595053436
75 *6:10 0.00043429369568000003
76 _33_:B2 0.00024524937376
77 *6:11 0.003996199828740001
78 _39_:A2 0
79 *6:9 0
80 _33_:A2_N 0
*RES
96 *6:1 *6:2 1.6428571428571428
97 *6:2 *6:3 0.6071428571428571
98 _38_:B *6:4 0.30357142857142855
99 *6:5 *6:4 2.875
100 *6:6 _39_:A2 0.8214285714285714
101 *6:7 *6:8 2.1249999999999996
102 _38_:B *6:9 1.6428571428571428
103 *6:10 *6:7 4.857142857142857
104 _33_:B2 _33_:A2_N 2.464285714285714
105 *6:11 *6:1 45.6875
106 _38_:B _38_:B 0
107 *6:5 *6:11 0
108 _39_:A2 _39_:A2 0
109 *6:6 *6:7 0
110 *6:9 *6:8 0
111 _33_:A2_N _33_:A2_N 0
112 _33_:A2_N *6:10 0
113 _33_:B2 _33_:B2 0
*END

*D_NET *7 0.00436924503742
*CONN
*P i0[5] I
*I _43_:A2 I
*I _42_:B I
*I _37_:B2 I
*I _37_:A2_N I
*CAP
81 *7:1 0.00039657446404
82 _37_:A2_N 5.034052896000001e-05
83 *7:4 2.3813806740000006e-05
84 *7:5 4.640188412000001e-05
85 *7:6 0.00018270924762000003
86 _37_:B2 0.00024524937376
87 *7:8 0.00024891568132000004
88 *7:7 0.0031752400508600004
89 _43_:A2 0
90 _42_:B 0
91 *7:10 0
*RES
114 *7:1 *7:2 3.6964285714285707
115 *7:1 *7:3 0.6071428571428571
116 _37_:A2_N _37_:A2_N 0.4107142857142857
117 *7:4 *7:5 0.15178571428571427
118 *7:5 *7:6 0.4107142857142857
119 *7:6 *7:7 1.9732142857142856
120 _37_:B2 _37_:A2_N 2.464285714285714
121 *7:8 *7:9 2.7321428571428568
122 *7:7 *7:2 36.276785714285715
123 _43_:A2 _43_:A2 0
124 _43_:A2 *7:7 0
125 _37_:A2_N _37_:A2_N 0
126 _37_:A2_N *7:4 0
127 _37_:B2 _37_:B2 0
128 _42_:B _42_:B 0
129 _42_:B *7:8 0
130 *7:10 *7:9 0
*END

*D_NET *8 0.0033750385329400006
*CONN
*P i0[6] I
*I _47_:A2 I
*I _46_:B I
*I _41_:B2 I
*I _41_:A2_N I
*CAP
92 _46_:B 1.98330576e-05
93 *8:1 0.00020919182110000001
94 *8:3 0.0019481417102800002
95 _47_:A2 4.017137184e-05
96 *8:6 0.00028423114272
97 *8:7 0.00016946796088000002
98 _41_:B2 4.017137184e-05
99 *8:8 8.932229792e-05
100 *8:10 0.00024891568132000004
101 *8:11 4.017137184e-05
102 *8:12 0.0002854207456
103 *8:9 0
104 _41_:A2_N 0
*RES
131 _46_:B _46_:B 0.08928571428571429
132 *8:1 *8:2 2.276785714285714
133 *8:3 *8:2 2.0535714285714284
134 *8:3 *8:4 20.035714285714285
135 _47_:A2 *8:5 0.30357142857142855
136 *8:6 *8:5 2.875
137 *8:7 *8:1 1.8214285714285714
138 _41_:B2 *8:8 0.30357142857142855
139 *8:8 *8:9 0.8214285714285714
140 *8:10 *8:7 2.7321428571428568
141 *8:11 _41_:A2_N 0.30357142857142855
142 *8:12 *8:11 2.464285714285714
143 *8:12 _41_:B2 0.30357142857142855
144 _46_:B _46_:B 0
145 _46_:B *8:1 0
146 _47_:A2 _47_:A2 0
147 *8:6 *8:7 0
148 _41_:B2 _41_:B2 0
149 *8:9 *8:10 0
150 _41_:A2_N _41_:A2_N 0
*END

*D_NET *9 0.00278630538694
*CONN
*P i0[7] I
*I _49_:B1 I
*I _49_:A1_N I
*I _48_:A1 I
*I _45_:A I
*CAP
105 _48_:A1 0.00064642582336
106 *9:2 0.0012949773337799998
107 *9:4 0.00024891568132000004
108 _49_:B1 0.00016728583584
109 _45_:A 0.0002062676048
110 *9:7 0.00022243310784000002
111 *9:1 0
112 _49_:A1_N 0
113 *9:6 0
*RES
151 _48_:A1 *9:1 6.160714285714286
152 *9:2 *9:3 14.723214285714283
153 *9:4 *9:5 2.7321428571428568
154 _48_:A1 _48_:A1 0.4107142857142857
155 _49_:B1 _49_:A1_N 1.6428571428571428
156 _45_:A *9:6 2.0535714285714284
157 *9:7 *9:4 2.4285714285714284
158 _48_:A1 _48_:A1 0
159 *9:1 *9:2 0
160 _49_:A1_N _49_:A1_N 0
161 _49_:A1_N *9:4 0
162 _48_:A1 *9:5 0
163 _49_:B1 _49_:B1 0
164 _45_:A _45_:A 0
165 *9:6 *9:7 0
*END

*D_NET *10 0.0028615206803400007
*CONN
*P i1[0] I
*I _28_:B I
*I _53_:A2 I
*I _29_:A2 I
*CAP
114 *10:1 0.00040117644959999997
115 *10:2 0.0015333204951000002
116 *10:4 4.017137184e-05
117 *10:5 0.0002062676048
118 *10:6 0.0004078111222
119 _28_:B 5.034052896000001e-05
120 *10:7 0.00022243310784000002
121 _53_:A2 0
122 _29_:A2 0
123 *10:10 0
124 *10:8 0
*RES
166 *10:1 _53_:A2 4.107142857142857
167 *10:2 *10:3 17.455357142857142
168 *10:4 _29_:A2 0.30357142857142855
169 *10:5 *10:4 2.0535714285714284
170 *10:6 *10:7 4.553571428571428
171 _28_:B *10:8 0.4107142857142857
172 *10:7 *10:9 2.4285714285714284
173 _53_:A2 _53_:A2 0
174 *10:1 *10:3 0
175 _29_:A2 _29_:A2 0
176 *10:5 *10:7 0
177 *10:10 *10:6 0
178 _28_:B _28_:B 0
179 *10:8 *10:9 0
*END

*D_NET *11 0.0031438131252200002
*CONN
*P i1[1] I
*I _55_:B2 I
*I _55_:A2_N I
*I _30_:A2 I
*I _27_:B I
*CAP
125 *11:1 0.00012830406688
126 *11:2 0.0015333204951000002
127 *11:4 5.034052896000001e-05
128 *11:3 0.00019595053436
129 *11:6 4.017137184e-05
130 *11:7 0.0002854207456
131 *11:8 0.00013881539712
132 *11:10 0.00028423114272
133 *11:5 0.00048725884264
134 _27_:B 0
135 _55_:B2 0
136 _55_:A2_N 0
137 _30_:A2 0
*RES
180 *11:1 _27_:B 1.232142857142857
181 *11:2 *11:3 17.455357142857142
182 *11:4 _55_:B2 0.4107142857142857
183 *11:3 *11:5 2.1249999999999996
184 *11:6 _55_:A2_N 0.30357142857142855
185 *11:7 *11:6 2.464285714285714
186 *11:7 _55_:B2 0.30357142857142855
187 *11:8 _30_:A2 0.6160714285714285
188 *11:8 *11:9 0.6071428571428571
189 *11:10 *11:9 2.875
190 *11:5 *11:11 5.4642857142857135
191 _27_:B _27_:B 0
192 *11:1 *11:3 0
193 _55_:B2 _55_:B2 0
194 *11:4 *11:5 0
195 _55_:A2_N _55_:A2_N 0
196 _30_:A2 _30_:A2 0
197 *11:10 *11:11 0
*END

*D_NET *12 0.00364131656422
*CONN
*P i1[2] I
*I _57_:B2 I
*I _57_:A2_N I
*I _31_:A2 I
*I _26_:B I
*CAP
138 *12:1 5.034052896000001e-05
139 _57_:B2 0.00024524937376
140 *12:2 4.017137184e-05
141 *12:3 0.0003621946806399999
142 *12:4 0.00012830406688
143 *12:5 0.00043429369568000003
144 *12:7 0.00238076284646
145 _57_:A2_N 0
146 _31_:A2 0
147 _26_:B 0
*RES
198 *12:1 _57_:B2 0.4107142857142857
199 _57_:B2 _57_:A2_N 2.464285714285714
200 *12:2 _31_:A2 0.30357142857142855
201 *12:3 *12:2 3.6964285714285707
202 *12:4 _26_:B 1.232142857142857
203 *12:5 *12:6 4.857142857142857
204 *12:7 *12:5 27.169642857142854
205 _57_:B2 _57_:B2 0
206 *12:1 *12:5 0
207 _57_:A2_N _57_:A2_N 0
208 _31_:A2 _31_:A2 0
209 *12:3 *12:8 0
210 _26_:B _26_:B 0
211 *12:4 *12:6 0
*END

*D_NET *13 0.0045973629949
*CONN
*P i1[3] I
*I _35_:A1 I
*I _34_:A I
*I _25_:B1 I
*I _25_:A1_N I
*CAP
148 *13:1 0.00016847543872000001
149 _25_:B1 0.00012830406688
150 *13:3 4.017137184e-05
151 *13:4 0.00032321291168
152 *13:5 8.932229792e-05
153 *13:6 0.0004078111222
154 *13:8 0.00344006578566
155 _25_:A1_N 0
156 _35_:A1 0
157 _34_:A 0
*RES
212 *13:1 _25_:A1_N 1.232142857142857
213 *13:1 *13:2 0.30357142857142855
214 _25_:B1 *13:2 1.232142857142857
215 *13:3 _35_:A1 0.30357142857142855
216 *13:4 *13:3 3.2857142857142856
217 *13:5 _34_:A 0.8214285714285714
218 *13:6 *13:7 4.553571428571428
219 *13:8 *13:6 39.3125
220 _25_:B1 _25_:B1 0
221 _25_:B1 *13:6 0
222 _25_:A1_N _25_:A1_N 0
223 _35_:A1 _35_:A1 0
224 *13:4 *13:9 0
225 _34_:A _34_:A 0
226 *13:5 *13:7 0
*END

*D_NET *14 0.006033526294540001
*CONN
*P i1[4] I
*I _39_:A1 I
*I _38_:A I
*I _33_:B1 I
*I _33_:A1_N I
*CAP
158 *14:1 6.353766696000002e-05
159 *14:3 0.00446632288854
160 _33_:A1_N 4.017137184e-05
161 *14:5 0.00040117644959999997
162 _33_:B1 6.898398368e-05
163 *14:6 0.0004078111222
164 *14:4 5.034052896000001e-05
165 *14:9 0.00039219689536000005
166 *14:7 0.00014298538739999998
167 _39_:A1 0
168 *14:8 0
169 _38_:A 0
170 *14:10 0
*RES
227 *14:1 *14:2 0.6071428571428571
228 *14:3 *14:2 0.4107142857142857
229 _33_:A1_N *14:4 0.30357142857142855
230 *14:5 *14:4 4.107142857142857
231 _33_:B1 *14:5 0.6071428571428571
232 *14:6 *14:7 4.553571428571428
233 *14:4 *14:8 0.4107142857142857
234 *14:9 _38_:A 0.6071428571428571
235 *14:9 *14:10 3.2857142857142856
236 *14:7 *14:11 1.5178571428571426
237 *14:3 *14:12 50.544642857142854
238 _33_:B1 _33_:B1 0
239 _33_:B1 *14:12 0
240 _33_:A1_N _33_:A1_N 0
241 _39_:A1 _39_:A1 0
242 _39_:A1 *14:7 0
243 *14:8 *14:6 0
244 _38_:A _38_:A 0
245 *14:10 *14:11 0
*END

*D_NET *15 0.00653432777882
*CONN
*P i1[5] I
*I _43_:A1 I
*I _42_:A I
*I _37_:B1 I
*I _37_:A1_N I
*CAP
171 *15:1 6.353766696000002e-05
172 *15:2 8.223124824000001e-05
173 _37_:B1 8.932229792e-05
174 *15:4 0.00022243310784000002
175 _37_:A1_N 4.017137184e-05
176 *15:7 0.00028423114272
177 *15:5 6.353766696000002e-05
178 *15:9 0.00016946796088000002
179 *15:11 4.017137184e-05
180 *15:3 0.00547922394362
181 _42_:A 0
182 _43_:A1 0
183 *15:12 0
*RES
246 *15:1 *15:2 0.6071428571428571
247 *15:2 *15:3 0.8214285714285714
248 _37_:B1 _37_:B1 0.8214285714285714
249 *15:4 *15:5 2.4285714285714284
250 _37_:A1_N *15:6 0.30357142857142855
251 *15:7 *15:6 2.875
252 *15:5 *15:8 0.6071428571428571
253 *15:9 *15:10 1.8214285714285714
254 *15:11 *15:12 0.30357142857142855
255 *15:3 *15:4 62.687499999999986
256 _42_:A _42_:A 0
257 _42_:A *15:4 0
258 _37_:B1 _37_:B1 0
259 _37_:B1 *15:5 0
260 _37_:A1_N _37_:A1_N 0
261 *15:7 *15:8 0
262 _43_:A1 _43_:A1 0
263 _43_:A1 *15:10 0
264 *15:12 *15:9 0
*END

*D_NET *16 0.00790436968018
*CONN
*P i1[6] I
*I _47_:A1 I
*I _46_:A I
*I _41_:B1 I
*I _41_:A1_N I
*CAP
184 *16:1 6.353766696000002e-05
185 *16:2 0.00015388997648
186 _41_:B1 0.00016728583584
187 *16:4 4.017137184e-05
188 *16:5 0.00028423114272
189 *16:6 0.00019595053436
190 *16:7 0.00024891568132000004
191 *16:3 0.006750387470660001
192 _41_:A1_N 0
193 _47_:A1 0
194 _46_:A 0
*RES
265 *16:1 *16:2 0.6071428571428571
266 *16:2 *16:3 1.6428571428571428
267 _41_:B1 _41_:A1_N 1.6428571428571428
268 *16:4 _47_:A1 0.30357142857142855
269 *16:5 *16:4 2.875
270 *16:6 *16:7 2.1249999999999996
271 *16:7 *16:8 2.7321428571428568
272 *16:3 *16:6 77.25892857142857
273 _41_:B1 _41_:B1 0
274 _41_:B1 *16:6 0
275 _41_:A1_N _41_:A1_N 0
276 _47_:A1 _47_:A1 0
277 *16:5 *16:7 0
278 _46_:A _46_:A 0
279 _46_:A *16:8 0
*END

*D_NET *17 0.00917893270338
*CONN
*P i1[7] I
*I _49_:B2 I
*I _49_:A2_N I
*I _48_:A2 I
*I _45_:B I
*CAP
195 *17:1 7.67789537e-05
196 *17:3 0.00028423114272
197 _49_:A2_N 0.00032321291168
198 *17:6 0.0002854207456
199 *17:7 4.017137184e-05
200 _45_:B 5.034052896000001e-05
201 *17:9 0.00016946796088000002
202 *17:11 8.932229792e-05
203 *17:10 0.0002753982548
204 *17:13 0.00758458853528
205 *17:4 0
206 *17:5 0
207 _49_:B2 0
208 *17:8 0
209 *17:15 0
210 _48_:A2 0
*RES
280 *17:1 *17:2 0.7589285714285713
281 *17:3 *17:4 2.875
282 _49_:A2_N *17:5 3.2857142857142856
283 *17:6 _49_:B2 0.30357142857142855
284 *17:6 *17:7 2.464285714285714
285 *17:7 _49_:A2_N 0.30357142857142855
286 _45_:B *17:8 0.4107142857142857
287 *17:9 *17:10 1.8214285714285714
288 *17:11 _48_:A2 0.8214285714285714
289 *17:10 *17:12 3.035714285714285
290 *17:13 *17:14 86.82142857142856
291 *17:4 *17:2 0
292 *17:3 *17:13 0
293 _49_:A2_N _49_:A2_N 0
294 *17:5 *17:14 0
295 _49_:B2 _49_:B2 0
296 _45_:B _45_:B 0
297 *17:8 *17:9 0
298 *17:15 *17:10 0
299 _48_:A2 _48_:A2 0
300 *17:11 *17:12 0
*END

*D_NET *18 0.009509747656520002
*CONN
*P s[0] O
*I _54_:X O
*CAP
211 *18:1 0.00047401755590000005
212 *18:3 0.0012662396163
213 *18:5 0.006443350638400001
214 _54_:X 0.0003621946806399999
215 *18:8 0.0009639451652800001
216 *18:6 0
217 *18:7 0
*RES
301 *18:1 *18:2 5.3125
302 *18:3 *18:4 2.2701000000000002
303 *18:5 *18:6 67.76785714285714
304 _54_:X *18:7 3.6964285714285707
305 *18:8 *18:9 10.928571428571427
306 *18:5 *18:8 0
307 *18:6 *18:2 0
308 *18:1 *18:3 0
309 *18:7 *18:9 0
310 _54_:X _54_:X 0
*END

*D_NET *19 0.007473098812559999
*CONN
*P s[1] O
*I _56_:X O
*CAP
218 *19:1 0.00057994784982
219 *19:3 0.0014633263173
220 _56_:X 0.00542982464544
221 *19:5 0
*RES
311 *19:1 *19:2 6.5267857142857135
312 *19:3 *19:4 2.6304333333333334
313 _56_:X *19:5 57.08928571428571
314 *19:5 *19:2 0
315 *19:1 *19:3 0
316 _56_:X _56_:X 0
*END

*D_NET *20 0.00582851731556
*CONN
*P s[2] O
*I _58_:X O
*CAP
222 *20:1 0.0017786650388999998
223 *20:3 5.029638022e-05
224 *20:5 9.002024044000002e-05
225 *20:7 0.003909535656
226 *20:8 0
227 _58_:X 0
*RES
317 *20:1 *20:2 3.2069666666666667
318 *20:3 *20:4 0.45535714285714285
319 *20:5 *20:6 0.9107142857142857
320 *20:7 *20:8 41.07142857142857
321 *20:3 *20:1 0
322 *20:8 *20:4 0
323 *20:7 *20:5 0
324 _58_:X _58_:X 0
325 _58_:X *20:6 0
*END

*D_NET *21 0.004525883993759999
*CONN
*P s[3] O
*I _32_:X O
*CAP
228 *21:1 0.00012974410066
229 *21:3 0.0012662396163
230 _32_:X 0.0031299002767999997
231 *21:5 0
*RES
326 *21:1 *21:2 1.3660714285714284
327 *21:3 *21:4 2.2701000000000002
328 _32_:X *21:5 32.857142857142854
329 *21:5 *21:2 0
330 *21:1 *21:3 0
331 _32_:X _32_:X 0
*END

*D_NET *22 0.00329140215376
*CONN
*P s[4] O
*I _36_:X O
*CAP
232 *22:1 0.00010326152718000001
233 *22:3 0.0013056569565
234 _36_:X 0.0018824836700799999
235 *22:5 0
*RES
332 *22:1 *22:2 1.0624999999999998
333 *22:3 *22:4 2.342166666666667
334 _36_:X *22:5 19.71428571428571
335 *22:5 *22:2 0
336 *22:1 *22:3 0
337 _36_:X _36_:X 0
*END

*D_NET *23 0.0022978769025200005
*CONN
*P s[5] O
*I _40_:X O
*CAP
236 _40_:X 0.00040117644959999997
237 *23:2 0.00031512211502
238 *23:4 0.0015815783379000002
239 *23:1 0
240 *23:3 0
*RES
338 _40_:X *23:1 4.107142857142857
339 *23:2 *23:3 3.4910714285714284
340 *23:4 *23:5 2.8466333333333336
341 _40_:X _40_:X 0
342 *23:1 *23:2 0
343 *23:3 *23:4 0
*END

*D_NET *24 0.00109357976208
*CONN
*P s[6] O
*I _44_:X O
*CAP
241 *24:1 0.00010326152718000001
242 *24:3 0.0009903182348999999
243 _44_:X 0
244 *24:2 0
*RES
344 *24:1 *24:2 1.0624999999999998
345 *24:3 *24:4 1.7656333333333334
346 _44_:X _44_:X 0
347 _44_:X *24:1 0
348 *24:2 *24:3 0
*END

*D_NET *25 0.00093652344132
*CONN
*P s[7] O
*I _50_:X O
*CAP
245 *25:1 0.00018270924762000003
246 *25:3 0.0007538141937
247 _50_:X 0
*RES
349 *25:1 *25:2 1.9732142857142856
350 *25:3 *25:4 1.3332333333333333
351 _50_:X _50_:X 0
352 _50_:X *25:2 0
353 *25:1 *25:3 0
*END

*D_NET *26 0.00038709432568000005
*CONN
*I _32_:B1 I
*I _32_:A1_N I
*I _25_:X O
*CAP
248 _32_:B1 0.00016728583584
249 _25_:X 5.034052896000001e-05
250 *26:2 0.00016946796088000002
251 _32_:A1_N 0
252 *26:1 0
253 *26:4 0
*RES
354 _32_:B1 _32_:A1_N 1.6428571428571428
355 _25_:X *26:1 0.4107142857142857
356 *26:2 *26:3 1.8214285714285714
357 _32_:A1_N _32_:A1_N 0
358 _32_:B1 _32_:B1 0
359 _25_:X _25_:X 0
360 *26:1 *26:2 0
361 *26:4 *26:3 0
*END

*D_NET *27 0.00061704709204
*CONN
*I _31_:B1 I
*I _26_:X O
*CAP
254 *27:1 0.00056670656308
255 *27:3 5.034052896000001e-05
256 _31_:B1 0
257 _26_:X 0
*RES
362 *27:1 *27:2 6.374999999999999
363 *27:3 _26_:X 0.4107142857142857
364 _31_:B1 _31_:B1 0
365 _31_:B1 *27:1 0
366 *27:3 *27:2 0
367 _26_:X _26_:X 0
*END

*D_NET *28 0.00070899400796
*CONN
*I _30_:B1 I
*I _27_:X O
*CAP
258 _27_:X 8.932229792e-05
259 *28:1 0.00061967171004
260 _30_:B1 0
*RES
368 _27_:X _27_:X 0.8214285714285714
369 *28:1 *28:2 6.982142857142857
370 _27_:X _27_:X 0
371 _27_:X *28:1 0
372 _30_:B1 _30_:B1 0
373 _30_:B1 *28:2 0
*END

*D_NET *29 0.0014054888204400003
*CONN
*I psn_inst_psn_buff_38:A I
*I _29_:B2 I
*I _28_:X O
*CAP
261 _29_:B2 8.932229792e-05
262 *29:2 0.0010963580326800002
263 _28_:X 5.034052896000001e-05
264 *29:3 0.00016946796088000002
265 *29:1 0
266 psn_inst_psn_buff_38:A 0
*RES
374 _29_:B2 *29:1 0.8214285714285714
375 *29:2 *29:3 12.44642857142857
376 _28_:X _28_:X 0.4107142857142857
377 *29:3 *29:4 1.8214285714285714
378 _29_:B2 _29_:B2 0
379 *29:1 *29:3 0
380 psn_inst_psn_buff_38:A psn_inst_psn_buff_38:A 0
381 psn_inst_psn_buff_38:A *29:2 0
382 _28_:X _28_:X 0
383 _28_:X *29:4 0
*END

*D_NET *30 0.0033961606156
*CONN
*I psn_inst_psn_buff_36:A I
*I _30_:B2 I
*I _29_:X O
*CAP
267 *30:1 0.0005582931283199999
268 *30:3 0.00059318913656
269 *30:5 0.00044015821855999997
270 _29_:X 0.00180452013216
271 _30_:B2 0
272 *30:2 0
273 psn_inst_psn_buff_36:A 0
274 *30:6 0
*RES
384 *30:1 _30_:B2 0.30357142857142855
385 *30:1 *30:2 5.339285714285714
386 *30:3 *30:4 6.678571428571428
387 *30:5 psn_inst_psn_buff_36:A 4.517857142857142
388 _29_:X *30:6 18.892857142857142
389 _29_:X _29_:X 0
390 _30_:B2 _30_:B2 0
391 *30:2 *30:4 0
392 *30:5 *30:3 0
393 psn_inst_psn_buff_36:A psn_inst_psn_buff_36:A 0
394 *30:6 *30:7 0
*END

*D_NET *31 0.0028482188818400003
*CONN
*I psn_inst_psn_buff_33:A I
*I _31_:B2 I
*I _30_:X O
*CAP
275 *31:1 0.00032321291168
276 *31:2 6.898398368e-05
277 _30_:X 0.0010638665219200002
278 *31:3 0.0008050497244000001
279 *31:5 0.0005181217564799999
280 _31_:B2 6.898398368e-05
281 psn_inst_psn_buff_33:A 0
282 *31:6 0
*RES
395 *31:1 _31_:B2 3.2857142857142856
396 *31:2 *31:1 0.6071428571428571
397 _30_:X *31:2 11.089285714285714
398 *31:3 *31:4 9.107142857142856
399 *31:5 *31:6 5.339285714285714
400 _31_:B2 *31:5 0.6071428571428571
401 _31_:B2 _31_:B2 0
402 _30_:X _30_:X 0
403 psn_inst_psn_buff_33:A psn_inst_psn_buff_33:A 0
404 psn_inst_psn_buff_33:A *31:4 0
405 *31:6 *31:3 0
*END

*D_NET *32 0.0037824564120400007
*CONN
*I psn_inst_psn_buff_29:A I
*I _35_:B2 I
*I _31_:X O
*CAP
283 *32:1 0.0010169103122400001
284 _31_:X 0.0013757206736000002
285 *32:4 4.017137184e-05
286 *32:5 0.0005181217564799999
287 *32:2 0.00083153229788
288 _35_:B2 0
289 *32:3 0
290 psn_inst_psn_buff_29:A 0
*RES
406 *32:1 *32:2 11.535714285714285
407 _31_:X *32:3 14.375
408 *32:4 psn_inst_psn_buff_29:A 0.30357142857142855
409 *32:5 *32:4 5.339285714285714
410 *32:2 *32:6 9.410714285714285
411 _35_:B2 _35_:B2 0
412 _35_:B2 *32:2 0
413 *32:3 *32:1 0
414 _31_:X _31_:X 0
415 psn_inst_psn_buff_29:A psn_inst_psn_buff_29:A 0
416 *32:5 *32:6 0
*END

*D_NET *33 0.00033675379672000005
*CONN
*I _36_:B1 I
*I _36_:A1_N I
*I _33_:X O
*CAP
291 _36_:B1 0.00016728583584
292 *33:1 0.00016946796088000002
293 _36_:A1_N 0
294 _33_:X 0
295 *33:3 0
*RES
417 _36_:B1 _36_:A1_N 1.6428571428571428
418 *33:1 *33:2 1.8214285714285714
419 _36_:A1_N _36_:A1_N 0
420 _36_:B1 _36_:B1 0
421 _33_:X _33_:X 0
422 _33_:X *33:1 0
423 *33:3 *33:2 0
*END

*D_NET *34 0.00070899400796
*CONN
*I _35_:B1 I
*I _34_:X O
*CAP
296 *34:1 0.00061967171004
297 _34_:X 8.932229792e-05
298 _35_:B1 0
*RES
424 *34:1 *34:2 6.982142857142857
425 _34_:X _34_:X 0.8214285714285714
426 _35_:B1 _35_:B1 0
427 _35_:B1 *34:1 0
428 _34_:X *34:2 0
429 _34_:X _34_:X 0
*END

*D_NET *35 0.0031347414424400004
*CONN
*I psn_inst_psn_buff_24:A I
*I _39_:B2 I
*I _35_:X O
*CAP
299 *35:1 0.0008050497244000001
300 *35:3 0.0008911754687400002
301 *35:2 2.3813806740000006e-05
302 _35_:X 0.0014147024425599998
303 psn_inst_psn_buff_24:A 0
304 *35:6 0
305 _39_:B2 0
*RES
430 *35:1 *35:2 9.107142857142856
431 *35:3 *35:4 9.5625
432 *35:3 *35:5 0.4107142857142857
433 *35:2 *35:5 0.15178571428571427
434 _35_:X *35:6 14.785714285714283
435 psn_inst_psn_buff_24:A psn_inst_psn_buff_24:A 0
436 psn_inst_psn_buff_24:A *35:2 0
437 *35:6 *35:1 0
438 _39_:B2 _39_:B2 0
439 _39_:B2 *35:4 0
440 _35_:X _35_:X 0
*END

*D_NET *36 0.00074094777876
*CONN
*I _40_:B1 I
*I _40_:A1_N I
*I _37_:X O
*CAP
306 *36:1 0.00035484597524
307 _37_:X 8.932229792e-05
308 *36:4 4.017137184e-05
309 *36:5 0.00012830406688
310 _40_:B1 0.00012830406688
311 _40_:A1_N 0
312 *36:3 0
*RES
441 *36:1 *36:2 3.946428571428571
442 _37_:X *36:3 0.8214285714285714
443 *36:4 *36:5 0.30357142857142855
444 *36:5 _40_:A1_N 1.232142857142857
445 _40_:B1 *36:4 1.232142857142857
446 _40_:A1_N _40_:A1_N 0
447 _40_:A1_N *36:1 0
448 *36:3 *36:2 0
449 _37_:X _37_:X 0
450 _40_:B1 _40_:B1 0
*END

*D_NET *37 0.00028527283228
*CONN
*I _39_:B1 I
*I _38_:X O
*CAP
313 *37:1 0.00019595053436
314 _38_:X 8.932229792e-05
315 _39_:B1 0
*RES
451 *37:1 *37:2 2.1249999999999996
452 _38_:X _38_:X 0.8214285714285714
453 _39_:B1 _39_:B1 0
454 _39_:B1 *37:1 0
455 _38_:X *37:2 0
456 _38_:X _38_:X 0
*END

*D_NET *38 0.00366747435668
*CONN
*I psn_inst_psn_buff_13:A I
*I _43_:B2 I
*I _39_:X O
*CAP
316 *38:1 6.898398368e-05
317 *38:2 0.0009469212150399999
318 *38:3 4.017137184e-05
319 *38:4 0.0009904277387600001
320 _39_:X 0.0013757206736000002
321 *38:7 0.00024524937376
322 psn_inst_psn_buff_13:A 0
323 _43_:B2 0
324 *38:6 0
*RES
457 *38:1 *38:2 0.6071428571428571
458 *38:2 *38:3 9.857142857142856
459 *38:3 psn_inst_psn_buff_13:A 0.30357142857142855
460 *38:4 *38:5 11.232142857142856
461 _39_:X *38:6 14.375
462 *38:7 *38:1 2.464285714285714
463 psn_inst_psn_buff_13:A psn_inst_psn_buff_13:A 0
464 _43_:B2 _43_:B2 0
465 _43_:B2 *38:5 0
466 *38:6 *38:4 0
467 _39_:X _39_:X 0
468 *38:7 *38:8 0
*END

*D_NET *39 0.00075280864756
*CONN
*I _44_:B1 I
*I _44_:A1_N I
*I _41_:X O
*CAP
325 _44_:A1_N 0.00016847543872000001
326 *39:2 0.00014298538739999998
327 _44_:B1 4.017137184e-05
328 *39:4 0.00040117644959999997
329 *39:1 0
330 _41_:X 0
*RES
469 _44_:A1_N *39:1 1.232142857142857
470 *39:2 *39:3 1.5178571428571426
471 _44_:B1 *39:4 0.30357142857142855
472 *39:4 *39:5 4.107142857142857
473 _44_:A1_N *39:5 0.30357142857142855
474 _44_:A1_N _44_:A1_N 0
475 *39:1 *39:2 0
476 _41_:X _41_:X 0
477 _41_:X *39:3 0
478 _44_:B1 _44_:B1 0
*END

*D_NET *40 0.00043166907767999994
*CONN
*I _43_:B1 I
*I _42_:X O
*CAP
331 _42_:X 5.034052896000001e-05
332 *40:2 0.00038132854871999994
333 *40:1 0
334 _43_:B1 0
*RES
479 _42_:X *40:1 0.4107142857142857
480 *40:2 *40:3 4.249999999999999
481 _42_:X _42_:X 0
482 *40:1 *40:2 0
483 _43_:B1 _43_:B1 0
484 _43_:B1 *40:3 0
*END

*D_NET *41 0.00252014881272
*CONN
*I _47_:B2 I
*I psn_inst_psn_buff_0:A I
*I _43_:X O
*CAP
335 *41:1 0.0006726368570000002
336 *41:3 0.00035484597524
337 _43_:X 0.00149266598048
338 psn_inst_psn_buff_0:A 0
339 _47_:B2 0
340 *41:4 0
*RES
485 *41:1 *41:2 7.5892857142857135
486 *41:3 *41:1 3.946428571428571
487 _43_:X *41:4 15.607142857142856
488 psn_inst_psn_buff_0:A psn_inst_psn_buff_0:A 0
489 psn_inst_psn_buff_0:A *41:1 0
490 _47_:B2 _47_:B2 0
491 _47_:B2 *41:2 0
492 *41:4 *41:3 0
493 _43_:X _43_:X 0
*END

*D_NET *42 0.00057658114056
*CONN
*I _48_:B1 I
*I _45_:X O
*CAP
341 *42:1 0.00048725884264
342 *42:3 8.932229792e-05
343 _48_:B1 0
344 _45_:X 0
*RES
494 *42:1 *42:2 5.4642857142857135
495 *42:3 _45_:X 0.8214285714285714
496 _48_:B1 _48_:B1 0
497 _48_:B1 *42:2 0
498 *42:3 *42:1 0
499 _45_:X _45_:X 0
*END

*D_NET *43 0.00024629106332
*CONN
*I _47_:B1 I
*I _46_:X O
*CAP
345 *43:1 0.00019595053436
346 _46_:X 5.034052896000001e-05
347 _47_:B1 0
*RES
500 *43:1 *43:2 2.1249999999999996
501 _46_:X _46_:X 0.4107142857142857
502 _47_:B1 _47_:B1 0
503 _47_:B1 *43:1 0
504 _46_:X *43:2 0
505 _46_:X _46_:X 0
*END

*D_NET *44 0.0016701927695200003
*CONN
*I _48_:B2 I
*I _50_:A2_N I
*I _50_:B1 I
*I _47_:X O
*CAP
348 *44:1 8.932229792e-05
349 *44:2 0.0008050497244000001
350 _47_:X 0.00016728583584
351 _50_:B1 0.00038610180352
352 *44:3 0.00022243310784000002
353 _48_:B2 0
354 *44:4 0
355 _50_:A2_N 0
*RES
506 *44:1 _48_:B2 0.8214285714285714
507 *44:2 *44:3 9.107142857142856
508 _47_:X *44:4 1.6428571428571428
509 _50_:B1 _50_:B1 0.4107142857142857
510 *44:3 *44:5 2.4285714285714284
511 _50_:B1 _50_:A2_N 2.0535714285714284
512 _50_:B1 _50_:B1 0.30357142857142855
513 _50_:B1 _50_:B1 0.8214285714285714
514 _48_:B2 _48_:B2 0
515 *44:1 *44:3 0
516 *44:4 *44:2 0
517 _47_:X _47_:X 0
518 _50_:B1 _50_:B1 0
519 _50_:B1 *44:5 0
520 _50_:A2_N _50_:A2_N 0
*END

*D_NET *45 0.0008742065019999999
*CONN
*I _50_:A1_N I
*I _50_:B2 I
*I _49_:X O
*CAP
356 *45:1 0.00038132854871999994
357 *45:3 8.932229792e-05
358 *45:4 0.00036338428352000003
359 *45:5 4.017137184e-05
360 _50_:A1_N 0
361 _49_:X 0
362 _50_:B2 0
*RES
521 *45:1 *45:2 4.249999999999999
522 *45:3 _49_:X 0.8214285714285714
523 *45:4 _50_:B2 0.30357142857142855
524 *45:4 *45:5 3.2857142857142856
525 *45:5 _50_:A1_N 0.30357142857142855
526 _50_:A1_N _50_:A1_N 0
527 _50_:A1_N *45:2 0
528 *45:3 *45:1 0
529 _49_:X _49_:X 0
530 _50_:B2 _50_:B2 0
*END

*D_NET *46 0.0013136898178400002
*CONN
*I _54_:A1_N I
*I _54_:B1 I
*I _51_:Y O
*CAP
363 *46:1 0.0010169103122400001
364 _54_:B1 0.0002967795056
365 _51_:Y 0
366 _54_:A1_N 0
*RES
531 *46:1 *46:2 11.535714285714285
532 _54_:B1 _54_:A1_N 1.6428571428571428
533 _54_:B1 _54_:B1 0.30357142857142855
534 _54_:B1 _54_:B1 0.8214285714285714
535 _54_:B1 _54_:B1 0
536 _54_:B1 *46:2 0
537 _51_:Y _51_:Y 0
538 _51_:Y *46:1 0
539 _54_:A1_N _54_:A1_N 0
*END

*D_NET *47 0.00117648065584
*CONN
*I _53_:B1 I
*I _52_:Y O
*CAP
367 *47:1 0.00063625666624
368 *47:2 0.0005402239896
369 _53_:B1 0
370 *47:4 0
371 _52_:Y 0
*RES
540 *47:1 _53_:B1 0.30357142857142855
541 *47:2 *47:3 6.07142857142857
542 *47:1 *47:4 6.160714285714286
543 _53_:B1 _53_:B1 0
544 *47:4 *47:3 0
545 _52_:Y _52_:Y 0
546 _52_:Y *47:2 0
*END
