*SPEF "IEEE 1481-1998"
*DESIGN "adder"
*DATE "Sun Feb 28 17:10:15 2021"
*VENDOR "AUC CSCE Department"
*PROGRAM "SPEF Extractor"
*VERSION "1.0"
*DESIGN_FLOW "PIN_CAP NONE"
*DIVIDER /
*DELIMITER :
*BUS_DELIMITER []
*T_UNIT 1.00000 NS
*C_UNIT 1.00000 PF
*R_UNIT 1.00000 OHM
*L_UNIT 1.00000 HENRY


*NAME_MAP
*0 ci
*1 co
*2 i0[0]
*3 i0[1]
*4 i0[2]
*5 i0[3]
*6 i0[4]
*7 i0[5]
*8 i0[6]
*9 i0[7]
*10 i1[0]
*11 i1[1]
*12 i1[2]
*13 i1[3]
*14 i1[4]
*15 i1[5]
*16 i1[6]
*17 i1[7]
*18 s[0]
*19 s[1]
*20 s[2]
*21 s[3]
*22 s[4]
*23 s[5]
*24 s[6]
*25 s[7]
*26 _00_
*27 _01_
*28 _02_
*29 _03_
*30 _04_
*31 _05_
*32 _06_
*33 _07_
*34 _08_
*35 _09_
*36 _10_
*37 _11_
*38 _12_
*39 _13_
*40 _14_
*41 _15_
*42 _16_
*43 _17_
*44 _18_
*45 _19_
*46 _20_
*47 _21_
*48 _22_
*49 _23_
*50 _24_
*51 psn_net_0
*52 psn_net_1
*53 psn_net_2
*54 psn_net_3
*55 psn_net_4
*56 psn_net_5
*57 psn_net_6
*58 psn_net_7
*59 psn_net_8
*60 psn_net_9
*61 psn_net_10
*62 psn_net_11
*63 psn_net_12
*64 psn_net_13
*65 psn_net_14
*66 psn_net_15
*67 psn_net_16
*68 psn_net_17
*69 psn_net_18
*70 psn_net_19
*71 psn_net_20
*72 psn_net_21
*73 psn_net_22
*74 psn_net_23
*75 psn_net_24
*76 psn_net_25
*77 psn_net_26
*78 psn_net_27
*79 psn_net_28
*80 psn_net_29
*81 psn_net_30
*82 psn_net_31
*83 psn_net_32
*84 psn_net_33
*85 psn_net_34
*86 psn_net_35

*D_NET *0 0.0038479014405800004
*CONN
*P ci I
*I _29_:B1 I
*I _51_:A I
*CAP
0 *0:1 5.034052896000001e-05
1 *0:2 0.00124201218682
2 *0:4 0.0012050718544000002
3 _51_:A 4.017137184e-05
4 *0:7 0.00087014728
5 *0:9 0.00044015821855999997
6 _29_:B1 0
*RES
0 *0:1 _29_:B1 0.4107142857142857
1 *0:2 *0:3 14.116071428571427
2 *0:4 *0:3 0.8214285714285714
3 *0:4 *0:5 12.749999999999998
4 _51_:A *0:6 0.30357142857142855
5 *0:7 *0:6 8.625
6 *0:7 *0:8 0.30357142857142855
7 *0:9 *0:8 4.517857142857142
8 _29_:B1 _29_:B1 0
9 *0:1 *0:2 0
10 _51_:A _51_:A 0
11 *0:9 *0:10 0
*END

*D_NET *1 0.0049870823497
*CONN
*P co O
*I _48_:X O
*CAP
7 *1:1 0.0010831167459400002
8 *1:3 0.00055710352544
9 *1:5 0.00271179501496
10 _48_:X 0.00063506706336
11 *1:4 0
12 *1:7 0
*RES
12 *1:1 *1:2 12.294642857142856
13 *1:3 *1:4 5.75
14 *1:5 *1:6 30.96428571428571
15 _48_:X *1:7 6.571428571428571
16 *1:4 *1:2 0
17 *1:3 *1:5 0
18 *1:7 *1:6 0
19 _48_:X _48_:X 0
*END

*D_NET *2 0.008223607023100002
*CONN
*P i0[0] I
*I _28_:A I
*I _53_:A1 I
*I _29_:A1 I
*CAP
13 *2:1 6.353766696000002e-05
14 *2:3 0.006750834300800001
15 *2:4 0.00083116551104
16 *2:5 4.017137184e-05
17 _28_:A 0.00024524937376
18 *2:7 0.00022243310784000002
19 *2:9 4.640188412000001e-05
20 *2:10 2.3813806740000006e-05
21 _29_:A1 0
22 _53_:A1 0
23 *2:6 0
24 *2:12 0
*RES
20 *2:1 *2:2 0.6071428571428571
21 *2:3 *2:2 2.464285714285714
22 *2:4 _29_:A1 0.30357142857142855
23 *2:4 *2:5 8.214285714285714
24 *2:5 _53_:A1 0.30357142857142855
25 _28_:A *2:6 2.464285714285714
26 *2:7 *2:8 2.4285714285714284
27 *2:9 *2:10 0.4107142857142857
28 *2:10 *2:11 0.15178571428571427
29 *2:3 *2:9 74.67857142857142
30 _29_:A1 _29_:A1 0
31 _53_:A1 _53_:A1 0
32 _28_:A _28_:A 0
33 *2:6 *2:7 0
34 _29_:A1 *2:8 0
35 *2:12 *2:11 0
*END

*D_NET *3 0.00894058954206
*CONN
*P i0[1] I
*I _55_:B1 I
*I _55_:A1_N I
*I _30_:A1 I
*I _27_:A I
*CAP
25 *3:1 0.0010831167459400002
26 *3:3 0.00040117644959999997
27 *3:5 8.932229792e-05
28 *3:6 0.00024891568132000004
29 *3:8 0.00016847543872000001
30 _55_:B1 0.00012830406688
31 *3:10 0.00016946796088000002
32 *3:12 0.00024524937376
33 *3:9 4.017137184e-05
34 *3:14 0.0063663901552
35 *3:4 0
36 _27_:A 0
37 _55_:A1_N 0
38 _30_:A1 0
39 *3:13 0
*RES
36 *3:1 *3:2 12.294642857142856
37 *3:3 *3:4 4.107142857142857
38 *3:5 _27_:A 0.8214285714285714
39 *3:6 *3:7 2.7321428571428568
40 *3:8 _55_:A1_N 1.232142857142857
41 *3:8 *3:9 0.30357142857142855
42 _55_:B1 *3:9 1.232142857142857
43 *3:10 *3:11 1.8214285714285714
44 *3:12 *3:13 2.464285714285714
45 *3:9 *3:12 0.30357142857142855
46 *3:14 *3:6 72.85714285714285
47 *3:3 *3:2 0
48 *3:4 *3:14 0
49 _27_:A _27_:A 0
50 *3:5 *3:6 0
51 _55_:B1 _55_:B1 0
52 _55_:B1 *3:7 0
53 _55_:A1_N _55_:A1_N 0
54 _30_:A1 _30_:A1 0
55 _30_:A1 *3:11 0
56 *3:13 *3:10 0
*END

*D_NET *4 0.00452578882634
*CONN
*P i0[2] I
*I _57_:B1 I
*I _57_:A1_N I
*I _31_:A1 I
*I _26_:A I
*CAP
40 *4:1 0.00180452013216
41 *4:2 0.0013214599072599999
42 _57_:A1_N 0.00024643897664
43 *4:5 0.00040117644959999997
44 _57_:B1 6.898398368e-05
45 *4:6 0.00022243310784000002
46 *4:9 0.00046077626916000004
47 _31_:A1 0
48 *4:8 0
49 _26_:A 0
50 *4:11 0
*RES
57 *4:1 _57_:B1 18.892857142857142
58 *4:2 *4:3 15.026785714285712
59 _57_:A1_N *4:4 0.30357142857142855
60 *4:5 *4:4 4.107142857142857
61 _57_:B1 *4:5 0.6071428571428571
62 *4:6 *4:7 2.4285714285714284
63 _57_:A1_N *4:8 2.0535714285714284
64 *4:9 *4:10 5.160714285714286
65 _57_:B1 _57_:B1 0
66 *4:1 *4:2 0
67 _57_:A1_N _57_:A1_N 0
68 _31_:A1 _31_:A1 0
69 _31_:A1 *4:6 0
70 *4:8 *4:7 0
71 _26_:A _26_:A 0
72 _26_:A *4:9 0
73 *4:11 *4:10 0
*END

*D_NET *5 0.0027557924212400003
*CONN
*P i0[3] I
*I _35_:A2 I
*I _34_:B I
*I _25_:B2 I
*I _25_:A2_N I
*CAP
51 *5:1 0.0005005001293800001
52 *5:3 0.0009509008947
53 *5:5 0.0002854207456
54 *5:6 4.017137184e-05
55 _34_:B 0.0002062676048
56 *5:2 0.00024891568132000004
57 _35_:A2 8.932229792e-05
58 *5:8 0.00043429369568000003
59 _25_:A2_N 0
60 _25_:B2 0
61 *5:7 0
62 *5:9 0
*RES
74 *5:1 *5:2 5.616071428571428
75 *5:3 *5:4 1.6935666666666669
76 *5:5 _25_:B2 0.30357142857142855
77 *5:5 *5:6 2.464285714285714
78 *5:6 _25_:A2_N 0.30357142857142855
79 _34_:B *5:7 2.0535714285714284
80 *5:2 *5:8 2.7321428571428568
81 _35_:A2 *5:9 0.8214285714285714
82 *5:8 *5:10 4.857142857142857
83 _25_:A2_N _25_:A2_N 0
84 _25_:A2_N *5:2 0
85 *5:1 *5:3 0
86 _25_:B2 _25_:B2 0
87 _34_:B _34_:B 0
88 *5:7 *5:8 0
89 _35_:A2 _35_:A2 0
90 *5:9 *5:10 0
*END

*D_NET *6 0.0033710787246400004
*CONN
*P i0[4] I
*I _39_:A2 I
*I _38_:B I
*I _33_:B2 I
*I _33_:A2_N I
*CAP
63 *6:1 0.0012949773337799998
64 *6:3 0.0011479875956999998
65 *6:5 0.00020745720768000002
66 *6:6 0.00020919182110000001
67 *6:8 9.669826434000002e-05
68 _33_:B2 4.017137184e-05
69 *6:9 8.932229792e-05
70 *6:11 8.932229792e-05
71 *6:12 0.00019595053436
72 _38_:B 0
73 *6:2 0
74 _33_:A2_N 0
75 _39_:A2 0
*RES
91 *6:1 *6:2 14.723214285714283
92 *6:3 *6:4 2.0539
93 *6:5 _33_:A2_N 1.6428571428571428
94 *6:6 *6:7 2.276785714285714
95 *6:8 *6:7 0.4107142857142857
96 *6:8 *6:1 0.45535714285714285
97 _33_:B2 *6:9 0.30357142857142855
98 *6:9 *6:10 0.8214285714285714
99 *6:5 *6:10 0.30357142857142855
100 *6:11 _39_:A2 0.8214285714285714
101 *6:12 *6:6 2.1249999999999996
102 _38_:B _38_:B 0
103 _38_:B *6:1 0
104 *6:2 *6:3 0
105 _33_:A2_N _33_:A2_N 0
106 *6:5 *6:6 0
107 _33_:B2 _33_:B2 0
108 _39_:A2 _39_:A2 0
109 *6:11 *6:12 0
*END

*D_NET *7 0.00625311771322
*CONN
*P i0[5] I
*I _43_:A2 I
*I _42_:B I
*I _37_:B2 I
*I _37_:A2_N I
*CAP
76 *7:1 4.017137184e-05
77 _43_:A2 4.017137184e-05
78 *7:3 0.0019438003840400002
79 *7:5 0.0010248847529600001
80 *7:7 0.00014298538739999998
81 *7:9 5.034052896000001e-05
82 *7:4 0.0004078111222
83 _37_:B2 0.00024524937376
84 *7:11 0.0013214599072599999
85 *7:13 0.0009469212150399999
86 *7:14 8.932229792e-05
87 _42_:B 0
88 *7:6 0
89 *7:15 0
90 _37_:A2_N 0
*RES
110 *7:1 _42_:B 0.30357142857142855
111 _43_:A2 *7:2 0.30357142857142855
112 *7:3 *7:4 22.160714285714285
113 *7:5 *7:6 10.678571428571429
114 *7:7 *7:8 1.5178571428571426
115 *7:9 _37_:B2 0.4107142857142857
116 *7:4 *7:10 4.553571428571428
117 _37_:B2 _37_:A2_N 2.464285714285714
118 *7:11 *7:12 15.026785714285712
119 *7:13 *7:2 9.857142857142856
120 *7:14 *7:1 0.8214285714285714
121 _42_:B _42_:B 0
122 _43_:A2 _43_:A2 0
123 *7:13 *7:4 0
124 *7:6 *7:3 0
125 *7:5 *7:12 0
126 *7:14 *7:8 0
127 *7:15 *7:7 0
128 _37_:B2 _37_:B2 0
129 *7:9 *7:10 0
130 _37_:A2_N _37_:A2_N 0
*END

*D_NET *8 0.005137828609880001
*CONN
*P i0[6] I
*I _47_:A2 I
*I _46_:B I
*I _41_:B2 I
*I _41_:A2_N I
*CAP
91 *8:1 0.0024672102044800003
92 *8:2 7.67789537e-05
93 *8:4 0.00020745720768000002
94 *8:6 8.932229792e-05
95 _41_:B2 4.017137184e-05
96 _46_:B 5.034052896000001e-05
97 *8:8 0.00024891568132000004
98 *8:10 4.017137184e-05
99 *8:11 0.00024524937376
100 *8:9 0.00016946796088000002
101 *8:13 0.0015027436575
102 _41_:A2_N 0
103 *8:7 0
104 *8:15 0
105 _47_:A2 0
*RES
131 *8:1 _41_:B2 25.874999999999996
132 *8:2 *8:3 0.7589285714285713
133 *8:4 _41_:A2_N 1.6428571428571428
134 *8:4 *8:5 0.30357142857142855
135 *8:6 *8:5 0.8214285714285714
136 _41_:B2 *8:6 0.30357142857142855
137 _46_:B *8:7 0.4107142857142857
138 *8:8 *8:9 2.7321428571428568
139 *8:10 _47_:A2 0.30357142857142855
140 *8:11 *8:10 2.464285714285714
141 *8:9 *8:12 1.8214285714285714
142 *8:13 *8:14 2.7025
143 _41_:B2 _41_:B2 0
144 *8:1 *8:3 0
145 *8:2 *8:14 0
146 _41_:A2_N _41_:A2_N 0
147 _46_:B _46_:B 0
148 *8:7 *8:9 0
149 *8:15 *8:8 0
150 _47_:A2 _47_:A2 0
151 *8:11 *8:12 0
*END

*D_NET *9 0.00903361738662
*CONN
*P i0[7] I
*I _49_:B1 I
*I _49_:A1_N I
*I _48_:A1 I
*I _45_:A I
*CAP
106 *9:1 0.0011360818929000002
107 *9:3 0.00223331959072
108 _45_:A 0.00012830406688
109 *9:6 0.00022243310784000002
110 _49_:B1 0.00016728583584
111 *9:8 0.00071303060128
112 *9:7 0.004433162291160001
113 *9:4 0
114 *9:5 0
115 _49_:A1_N 0
116 _48_:A1 0
*RES
152 *9:1 *9:2 12.901785714285712
153 *9:3 *9:4 23.41071428571428
154 _45_:A *9:5 1.232142857142857
155 *9:6 *9:7 2.4285714285714284
156 _49_:B1 _49_:A1_N 1.6428571428571428
157 *9:8 _48_:A1 7.3928571428571415
158 *9:7 *9:9 50.69642857142857
159 *9:4 *9:1 0
160 *9:3 *9:9 0
161 _45_:A _45_:A 0
162 *9:5 *9:7 0
163 _49_:B1 _49_:B1 0
164 _49_:B1 *9:6 0
165 _49_:A1_N _49_:A1_N 0
166 _48_:A1 _48_:A1 0
167 *9:8 *9:10 0
*END

*D_NET *10 0.0021684236588200003
*CONN
*P i1[0] I
*I _28_:B I
*I _53_:A2 I
*I _29_:A2 I
*CAP
117 _28_:B 8.932229792e-05
118 *10:2 2.3813806740000006e-05
119 *10:4 0.0009509008947
120 *10:6 5.034052896000001e-05
121 *10:3 0.00018270924762000003
122 _53_:A2 4.017137184e-05
123 *10:9 0.0007909941392
124 _29_:A2 4.017137184e-05
125 *10:1 0
*RES
168 _28_:B *10:1 0.8214285714285714
169 *10:2 *10:3 0.15178571428571427
170 *10:4 *10:5 1.6935666666666669
171 *10:6 _29_:A2 0.4107142857142857
172 *10:3 *10:7 1.9732142857142856
173 _53_:A2 *10:8 0.30357142857142855
174 *10:9 *10:8 8.214285714285714
175 _29_:A2 *10:9 0.30357142857142855
176 _28_:B _28_:B 0
177 *10:1 *10:2 0
178 *10:3 *10:5 0
179 _29_:A2 _29_:A2 0
180 *10:6 *10:7 0
181 _53_:A2 _53_:A2 0
*END

*D_NET *11 0.0021375846180400004
*CONN
*P i1[1] I
*I _55_:B2 I
*I _55_:A2_N I
*I _30_:A2 I
*I _27_:B I
*CAP
126 *11:1 0.0006858781437400002
127 *11:3 0.00043847547209999995
128 *11:5 4.017137184e-05
129 *11:6 0.0002854207456
130 _30_:A2 4.017137184e-05
131 *11:8 0.0003621946806399999
132 *11:9 8.932229792e-05
133 *11:10 0.00019595053436
134 _55_:B2 0
135 *11:2 0
136 _55_:A2_N 0
137 _27_:B 0
*RES
182 *11:1 *11:2 7.741071428571428
183 *11:3 *11:4 0.7567
184 *11:5 _55_:A2_N 0.30357142857142855
185 *11:6 *11:5 2.464285714285714
186 *11:6 _55_:B2 0.30357142857142855
187 _30_:A2 *11:7 0.30357142857142855
188 *11:8 *11:7 3.6964285714285707
189 *11:9 _27_:B 0.8214285714285714
190 *11:10 *11:1 2.1249999999999996
191 _55_:B2 _55_:B2 0
192 _55_:B2 *11:1 0
193 *11:2 *11:4 0
194 _55_:A2_N _55_:A2_N 0
195 _30_:A2 _30_:A2 0
196 *11:8 *11:11 0
197 _27_:B _27_:B 0
198 *11:9 *11:10 0
*END

*D_NET *12 0.005260238598399999
*CONN
*P i1[2] I
*I _57_:B2 I
*I _57_:A2_N I
*I _31_:A2 I
*I _26_:B I
*CAP
138 *12:1 0.00020919182110000001
139 *12:3 0.0016209956780999998
140 _31_:A2 5.034052896000001e-05
141 *12:5 6.898398368e-05
142 *12:6 0.00129894673856
143 *12:8 0.00087014728
144 *12:9 0.00016946796088000002
145 *12:11 0.0003621946806399999
146 _57_:B2 0.00024524937376
147 _26_:B 8.932229792e-05
148 *12:14 0.0002753982548
149 *12:15 0
150 _57_:A2_N 0
151 *12:13 0
*RES
199 *12:1 *12:2 2.276785714285714
200 *12:3 *12:4 2.9187000000000003
201 _31_:A2 *12:5 0.4107142857142857
202 *12:5 *12:6 0.6071428571428571
203 *12:6 *12:7 13.142857142857142
204 *12:8 *12:7 0.30357142857142855
205 *12:9 *12:10 1.8214285714285714
206 *12:11 *12:12 3.6964285714285707
207 *12:6 *12:12 0.30357142857142855
208 _57_:B2 _57_:A2_N 2.464285714285714
209 _26_:B *12:13 0.8214285714285714
210 *12:14 *12:9 3.035714285714285
211 *12:8 *12:15 8.625
212 *12:15 *12:2 0
213 *12:1 *12:3 0
214 _31_:A2 _31_:A2 0
215 _57_:A2_N _57_:A2_N 0
216 _57_:A2_N *12:10 0
217 *12:11 *12:9 0
218 _57_:B2 _57_:B2 0
219 _26_:B _26_:B 0
220 *12:13 *12:14 0
*END

*D_NET *13 0.0025638203415600004
*CONN
*P i1[3] I
*I _35_:A1 I
*I _34_:A I
*I _25_:B1 I
*I _25_:A1_N I
*CAP
152 *13:1 0.00047401755590000005
153 *13:3 0.0010691529153
154 _34_:A 0.00012830406688
155 *13:6 0.00043429369568000003
156 _25_:B1 5.034052896000001e-05
157 *13:8 5.029638022e-05
158 *13:9 4.640188412000001e-05
159 *13:10 0.00018270924762000003
160 *13:7 0.00012830406688
161 _35_:A1 0
162 *13:2 0
163 *13:5 0
164 _25_:A1_N 0
*RES
221 *13:1 *13:2 5.3125
222 *13:3 *13:4 1.9097666666666666
223 _34_:A *13:5 1.232142857142857
224 *13:6 *13:1 4.857142857142857
225 _25_:B1 *13:7 0.4107142857142857
226 *13:8 *13:9 0.45535714285714285
227 *13:9 *13:10 0.4107142857142857
228 *13:10 *13:6 1.9732142857142856
229 *13:7 _25_:A1_N 1.232142857142857
230 _35_:A1 _35_:A1 0
231 _35_:A1 *13:1 0
232 *13:2 *13:3 0
233 _34_:A _34_:A 0
234 *13:5 *13:6 0
235 _25_:B1 _25_:B1 0
236 *13:7 *13:8 0
237 _25_:A1_N _25_:A1_N 0
*END

*D_NET *14 0.00721583794658
*CONN
*P i1[4] I
*I _39_:A1 I
*I _38_:A I
*I _33_:B1 I
*I _33_:A1_N I
*CAP
165 *14:1 0.0005960852944
166 *14:3 0.0015068379216200002
167 _33_:A1_N 0.00024524937376
168 *14:6 0.00032440251456
169 *14:7 4.017137184e-05
170 _38_:A 0.00055710352544
171 _39_:A1 0.00032321291168
172 *14:10 0.00019595053436
173 *14:11 0.00342682449892
174 *14:2 0
175 *14:5 0
176 _33_:B1 0
177 *14:8 0
178 *14:9 0
*RES
238 *14:1 *14:2 6.160714285714286
239 *14:3 *14:4 17.15178571428571
240 _33_:A1_N *14:5 2.464285714285714
241 *14:6 _33_:B1 0.30357142857142855
242 *14:6 *14:7 2.875
243 *14:7 _33_:A1_N 0.30357142857142855
244 _38_:A *14:8 5.75
245 _39_:A1 *14:9 3.2857142857142856
246 *14:10 *14:11 2.1249999999999996
247 *14:11 *14:12 39.160714285714285
248 *14:1 *14:12 0
249 *14:2 *14:3 0
250 _33_:A1_N _33_:A1_N 0
251 *14:5 *14:11 0
252 _33_:B1 _33_:B1 0
253 _38_:A _38_:A 0
254 *14:8 *14:13 0
255 _39_:A1 _39_:A1 0
256 *14:9 *14:10 0
*END

*D_NET *15 0.00754323076642
*CONN
*P i1[5] I
*I _43_:A1 I
*I _42_:A I
*I _37_:B1 I
*I _37_:A1_N I
*CAP
179 *15:1 4.017137184e-05
180 *15:2 0.0018908352370800002
181 *15:4 0.00231128312864
182 *15:6 0.00024891568132000004
183 *15:8 5.029638022e-05
184 *15:10 4.640188412000001e-05
185 *15:7 0.00020919182110000001
186 _37_:B1 4.017137184e-05
187 *15:11 0.0003621946806399999
188 *15:13 9.051190080000001e-05
189 *15:14 0.0012949773337799998
190 *15:16 0.00086895767712
191 *15:17 8.932229792e-05
192 _42_:A 0
193 _37_:A1_N 0
194 _43_:A1 0
195 *15:5 0
196 *15:18 0
*RES
257 *15:1 _43_:A1 0.30357142857142855
258 *15:2 *15:3 21.553571428571427
259 *15:4 *15:5 24.232142857142854
260 *15:6 *15:7 2.7321428571428568
261 *15:8 *15:9 0.45535714285714285
262 *15:10 *15:8 0.4107142857142857
263 *15:7 *15:10 2.276785714285714
264 _37_:B1 *15:11 0.30357142857142855
265 *15:11 *15:12 3.6964285714285707
266 *15:13 *15:12 0.30357142857142855
267 *15:14 *15:15 14.723214285714283
268 *15:16 *15:1 9.035714285714285
269 *15:17 _42_:A 0.8214285714285714
270 *15:13 _37_:A1_N 0.4107142857142857
271 _42_:A _42_:A 0
272 _37_:A1_N _37_:A1_N 0
273 _43_:A1 _43_:A1 0
274 *15:16 *15:3 0
275 *15:5 *15:2 0
276 *15:4 *15:15 0
277 *15:17 *15:7 0
278 *15:18 *15:6 0
279 *15:13 *15:9 0
280 _37_:B1 _37_:B1 0
*END

*D_NET *16 0.00673955369406
*CONN
*P i1[6] I
*I _47_:A1 I
*I _46_:A I
*I _41_:B1 I
*I _41_:A1_N I
*CAP
197 *16:1 0.00014576891520000004
198 _46_:A 0.0003621946806399999
199 *16:5 0.00022243310784000002
200 _41_:A1_N 0.00012830406688
201 *16:8 0.00022243310784000002
202 *16:9 0.00032440251456
203 *16:10 4.017137184e-05
204 *16:6 0.00529384592926
205 _47_:A1 0
206 *16:4 0
207 *16:7 0
208 _41_:B1 0
*RES
281 *16:1 *16:2 0.8214285714285714
282 *16:1 *16:3 0.6071428571428571
283 _46_:A *16:4 3.6964285714285707
284 *16:5 *16:6 2.4285714285714284
285 _41_:A1_N *16:7 1.232142857142857
286 *16:8 *16:5 2.4285714285714284
287 *16:9 _41_:B1 0.30357142857142855
288 *16:9 *16:10 2.875
289 *16:10 _41_:A1_N 0.30357142857142855
290 *16:6 *16:2 60.56249999999999
291 _47_:A1 _47_:A1 0
292 _47_:A1 *16:6 0
293 _46_:A _46_:A 0
294 *16:4 *16:5 0
295 _41_:A1_N _41_:A1_N 0
296 *16:7 *16:8 0
297 _41_:B1 _41_:B1 0
*END

*D_NET *17 0.0086173910648
*CONN
*P i1[7] I
*I _49_:B2 I
*I _49_:A2_N I
*I _48_:A2 I
*I _45_:B I
*CAP
209 *17:1 0.0012268222761
210 *17:3 0.00042105240893999997
211 *17:5 0.0009904277387600001
212 *17:7 5.034052896000001e-05
213 *17:8 0.00024891568132000004
214 *17:9 4.017137184e-05
215 *17:10 0.0002854207456
216 _48_:A2 6.898398368e-05
217 *17:12 0.00082997590816
218 *17:13 0.004455280421439999
219 *17:4 0
220 _45_:B 0
221 *17:14 0
222 _49_:B2 0
223 _49_:A2_N 0
*RES
298 *17:1 *17:2 2.198033333333333
299 *17:3 *17:4 4.705357142857142
300 *17:5 *17:6 11.232142857142856
301 *17:7 _49_:B2 0.4107142857142857
302 *17:8 *17:5 2.7321428571428568
303 *17:9 _49_:A2_N 0.30357142857142855
304 *17:10 *17:9 2.464285714285714
305 *17:10 _49_:B2 0.30357142857142855
306 _48_:A2 *17:11 0.6071428571428571
307 *17:12 *17:11 8.625
308 *17:13 *17:14 46.82142857142856
309 *17:4 *17:2 0
310 *17:13 *17:3 0
311 _45_:B _45_:B 0
312 _45_:B *17:5 0
313 *17:14 *17:6 0
314 _49_:B2 _49_:B2 0
315 *17:7 *17:8 0
316 _49_:A2_N _49_:A2_N 0
317 _48_:A2 _48_:A2 0
318 *17:12 *17:15 0
*END

*D_NET *18 0.0015482733554600002
*CONN
*P s[0] O
*I _54_:X O
*CAP
224 _54_:X 0.0005181217564799999
225 *18:2 0.0010301515989800001
226 *18:1 0
*RES
319 _54_:X *18:1 5.339285714285714
320 *18:2 *18:3 11.687499999999998
321 _54_:X _54_:X 0
322 *18:1 *18:2 0
*END

*D_NET *19 0.006231812057240001
*CONN
*P s[1] O
*I _56_:X O
*CAP
227 *19:1 0.0009114835544999999
228 *19:3 0.005320328502740001
229 _56_:X 0
*RES
323 *19:1 *19:2 1.6215
324 *19:3 *19:4 60.86607142857142
325 *19:3 *19:2 0
326 _56_:X _56_:X 0
327 _56_:X *19:4 0
*END

*D_NET *20 0.0011194738969000002
*CONN
*P s[2] O
*I _58_:X O
*CAP
230 _58_:X 8.932229792e-05
231 *20:1 0.0010301515989800001
*RES
328 _58_:X _58_:X 0.8214285714285714
329 *20:1 *20:2 11.687499999999998
330 _58_:X _58_:X 0
331 _58_:X *20:1 0
*END

*D_NET *21 0.00340971292368
*CONN
*P s[3] O
*I _32_:X O
*CAP
232 *21:1 0.0007932315339000001
233 *21:3 5.034052896000001e-05
234 *21:4 0.00256614086082
235 _32_:X 0
*RES
332 *21:1 *21:2 1.4053000000000002
333 *21:3 _32_:X 0.4107142857142857
334 *21:4 *21:5 29.294642857142858
335 *21:4 *21:1 0
336 *21:3 *21:5 0
337 _32_:X _32_:X 0
*END

*D_NET *22 0.003877143009140001
*CONN
*P s[4] O
*I _36_:X O
*CAP
236 *22:1 6.353766696000002e-05
237 *22:3 0.0038136053421800008
238 _36_:X 0
*RES
338 *22:1 *22:2 0.6071428571428571
339 *22:3 *22:2 0.8214285714285714
340 *22:3 *22:4 42.651785714285715
341 _36_:X _36_:X 0
342 _36_:X *22:4 0
*END

*D_NET *23 0.00639214292666
*CONN
*P s[5] O
*I _40_:X O
*CAP
239 *23:1 0.0005181217564799999
240 *23:3 0.0015068379216200002
241 _40_:X 0.0005960852944
242 *23:6 0.0037710979541600003
243 *23:2 0
244 *23:5 0
*RES
343 *23:1 *23:2 5.339285714285714
344 *23:3 *23:4 17.15178571428571
345 _40_:X *23:5 6.160714285714286
346 *23:6 *23:7 43.107142857142854
347 *23:1 *23:7 0
348 *23:2 *23:3 0
349 _40_:X _40_:X 0
350 *23:5 *23:6 0
*END

*D_NET *24 0.0032380797753000005
*CONN
*P s[6] O
*I _44_:X O
*CAP
245 _44_:X 8.932229792e-05
246 *24:2 0.0031487574773800004
247 *24:1 0
*RES
351 _44_:X *24:1 0.8214285714285714
352 *24:2 *24:3 35.973214285714285
353 *24:1 *24:3 0
354 _44_:X _44_:X 0
*END

*D_NET *25 0.00424886852022
*CONN
*P s[7] O
*I _50_:X O
*CAP
248 *25:1 0.00064615428352
249 *25:2 8.223124824000001e-05
250 *25:4 0.00055710352544
251 *25:3 0.00296337946302
252 _50_:X 0
*RES
355 *25:1 *25:2 7.285714285714286
356 *25:2 *25:3 0.8214285714285714
357 *25:4 _50_:X 5.75
358 *25:3 *25:5 33.84821428571428
359 *25:4 *25:5 0
360 _50_:X _50_:X 0
*END

*D_NET *26 0.0008987623999999999
*CONN
*I _32_:B1 I
*I _32_:A1_N I
*I _25_:X O
*CAP
253 *26:1 0.00038132854871999994
254 *26:3 8.932229792e-05
255 _32_:B1 5.034052896000001e-05
256 *26:4 6.898398368e-05
257 *26:5 0.00024524937376
258 *26:2 6.353766696000002e-05
259 _32_:A1_N 0
260 _25_:X 0
261 *26:6 0
*RES
361 *26:1 *26:2 4.249999999999999
362 *26:3 _25_:X 0.8214285714285714
363 _32_:B1 *26:4 0.4107142857142857
364 *26:4 *26:5 0.6071428571428571
365 *26:5 *26:6 2.464285714285714
366 *26:2 *26:7 0.6071428571428571
367 _32_:A1_N _32_:A1_N 0
368 _32_:A1_N *26:2 0
369 *26:3 *26:1 0
370 _25_:X _25_:X 0
371 _32_:B1 _32_:B1 0
372 *26:6 *26:7 0
*END

*D_NET *27 0.00019595053436
*CONN
*I _31_:B1 I
*I _26_:X O
*CAP
262 *27:1 0.00019595053436
263 _26_:X 0
264 _31_:B1 0
*RES
373 *27:1 *27:2 2.1249999999999996
374 _26_:X _26_:X 0
375 _26_:X *27:1 0
376 _31_:B1 _31_:B1 0
377 _31_:B1 *27:2 0
*END

*D_NET *28 0.00043166907767999994
*CONN
*I _30_:B1 I
*I _27_:X O
*CAP
265 _27_:X 5.034052896000001e-05
266 *28:1 0.00038132854871999994
267 _30_:B1 0
*RES
378 _27_:X _27_:X 0.4107142857142857
379 *28:1 *28:2 4.249999999999999
380 _27_:X _27_:X 0
381 _27_:X *28:1 0
382 _30_:B1 _30_:B1 0
383 _30_:B1 *28:2 0
*END

*D_NET *29 0.0009230136810399999
*CONN
*I psn_inst_psn_buff_35:A I
*I _29_:B2 I
*I _28_:X O
*CAP
268 *29:1 0.0002753982548
269 *29:3 0.00012830406688
270 psn_inst_psn_buff_35:A 4.017137184e-05
271 *29:4 0.0004791399875199999
272 _29_:B2 0
273 _28_:X 0
274 *29:5 0
*RES
384 *29:1 *29:2 3.035714285714285
385 *29:3 _28_:X 1.232142857142857
386 psn_inst_psn_buff_35:A *29:4 0.30357142857142855
387 *29:4 *29:5 4.928571428571428
388 _29_:B2 _29_:B2 0
389 _29_:B2 *29:2 0
390 *29:3 *29:1 0
391 _28_:X _28_:X 0
392 psn_inst_psn_buff_35:A psn_inst_psn_buff_35:A 0
393 *29:5 *29:6 0
*END

*D_NET *30 0.00239342726316
*CONN
*I psn_inst_psn_buff_33:A I
*I _30_:B2 I
*I _29_:X O
*CAP
275 *30:1 0.00014298538739999998
276 *30:3 0.0005960852944
277 *30:4 6.898398368e-05
278 *30:5 0.0005181217564799999
279 *30:6 5.034052896000001e-05
280 *30:7 0.0010169103122400001
281 _30_:B2 0
282 psn_inst_psn_buff_33:A 0
283 _29_:X 0
*RES
394 *30:1 *30:2 1.5178571428571426
395 *30:3 *30:4 6.160714285714286
396 *30:4 *30:5 0.6071428571428571
397 *30:5 psn_inst_psn_buff_33:A 5.339285714285714
398 *30:6 _29_:X 0.4107142857142857
399 *30:7 *30:1 11.535714285714285
400 _30_:B2 _30_:B2 0
401 _30_:B2 *30:1 0
402 *30:3 *30:2 0
403 psn_inst_psn_buff_33:A psn_inst_psn_buff_33:A 0
404 _29_:X _29_:X 0
405 *30:6 *30:7 0
*END

*D_NET *31 0.005908494803839999
*CONN
*I psn_inst_psn_buff_30:A I
*I _31_:B2 I
*I _30_:X O
*CAP
284 *31:1 0.00019595053436
285 *31:3 0.00032321291168
286 *31:4 0.00042105240893999997
287 *31:6 4.640188412000001e-05
288 *31:2 7.67789537e-05
289 _30_:X 0.004845098111039999
290 _31_:B2 0
291 *31:7 0
292 psn_inst_psn_buff_30:A 0
*RES
406 *31:1 *31:2 2.1249999999999996
407 *31:3 psn_inst_psn_buff_30:A 3.2857142857142856
408 *31:4 *31:5 4.705357142857142
409 *31:6 *31:4 0.4107142857142857
410 *31:2 *31:6 0.7589285714285713
411 _30_:X *31:7 50.92857142857142
412 _30_:X _30_:X 0
413 _31_:B2 _31_:B2 0
414 _31_:B2 *31:1 0
415 *31:7 *31:2 0
416 psn_inst_psn_buff_30:A psn_inst_psn_buff_30:A 0
417 *31:3 *31:5 0
*END

*D_NET *32 0.006932177555680001
*CONN
*I _35_:B2 I
*I psn_inst_psn_buff_6:A I
*I _31_:X O
*CAP
293 *32:1 5.034052896000001e-05
294 *32:2 0.00081829101114
295 *32:3 4.640188412000001e-05
296 psn_inst_psn_buff_6:A 0.00075201237024
297 *32:4 0.0031487574773800004
298 _31_:X 0.00211637428384
299 *32:6 0
300 _35_:B2 0
*RES
418 *32:1 psn_inst_psn_buff_6:A 0.4107142857142857
419 *32:2 *32:3 9.25892857142857
420 *32:3 *32:4 0.4107142857142857
421 psn_inst_psn_buff_6:A _35_:B2 7.803571428571428
422 *32:4 *32:5 35.973214285714285
423 _31_:X *32:6 22.178571428571427
424 *32:6 *32:5 0
425 psn_inst_psn_buff_6:A psn_inst_psn_buff_6:A 0
426 *32:1 *32:2 0
427 _35_:B2 _35_:B2 0
428 _31_:X _31_:X 0
*END

*D_NET *33 0.0010589461896799999
*CONN
*I _36_:A1_N I
*I _36_:B1 I
*I _33_:X O
*CAP
301 _36_:A1_N 0.00012830406688
302 *33:2 0.00038132854871999994
303 _36_:B1 4.017137184e-05
304 *33:4 0.00044015821855999997
305 *33:6 6.898398368e-05
306 *33:1 0
307 _33_:X 0
*RES
429 _36_:A1_N *33:1 1.232142857142857
430 *33:2 *33:3 4.249999999999999
431 _36_:B1 *33:4 0.30357142857142855
432 *33:4 *33:5 4.517857142857142
433 *33:6 *33:5 0.6071428571428571
434 _36_:A1_N _36_:A1_N 0
435 *33:1 *33:2 0
436 _33_:X _33_:X 0
437 _33_:X *33:3 0
438 _36_:B1 _36_:B1 0
*END

*D_NET *34 0.00057658114056
*CONN
*I _35_:B1 I
*I _34_:X O
*CAP
308 *34:1 0.00048725884264
309 *34:3 8.932229792e-05
310 _35_:B1 0
311 _34_:X 0
*RES
439 *34:1 *34:2 5.4642857142857135
440 *34:3 _34_:X 0.8214285714285714
441 _35_:B1 _35_:B1 0
442 _35_:B1 *34:2 0
443 *34:3 *34:1 0
444 _34_:X _34_:X 0
*END

*D_NET *35 0.0026260778980800002
*CONN
*I psn_inst_psn_buff_23:A I
*I _39_:B2 I
*I psn_inst_psn_buff_5:A I
*I _35_:X O
*CAP
312 *35:1 5.034052896000001e-05
313 *35:2 0.00061967171004
314 *35:4 0.00016728583584
315 _35_:X 8.932229792e-05
316 *35:6 0.00034160468850000003
317 *35:7 4.640188412000001e-05
318 *35:8 5.029638022e-05
319 *35:9 0.0012209832006400002
320 *35:10 4.017137184e-05
321 _39_:B2 0
322 psn_inst_psn_buff_5:A 0
323 *35:5 0
324 psn_inst_psn_buff_23:A 0
*RES
445 *35:1 _39_:B2 0.4107142857142857
446 *35:2 *35:3 6.982142857142857
447 *35:4 psn_inst_psn_buff_5:A 1.6428571428571428
448 _35_:X *35:5 0.8214285714285714
449 *35:6 *35:7 3.7946428571428568
450 *35:7 *35:8 0.4107142857142857
451 *35:8 *35:2 0.45535714285714285
452 *35:9 psn_inst_psn_buff_23:A 0.30357142857142855
453 *35:9 *35:10 12.321428571428571
454 *35:10 *35:1 0.30357142857142855
455 _39_:B2 _39_:B2 0
456 *35:1 *35:2 0
457 *35:4 *35:3 0
458 psn_inst_psn_buff_5:A psn_inst_psn_buff_5:A 0
459 _35_:X _35_:X 0
460 *35:5 *35:6 0
461 psn_inst_psn_buff_23:A psn_inst_psn_buff_23:A 0
*END

*D_NET *36 0.00038709432568000005
*CONN
*I _40_:B1 I
*I _40_:A1_N I
*I _37_:X O
*CAP
325 _40_:B1 0.00016728583584
326 _37_:X 5.034052896000001e-05
327 *36:2 0.00016946796088000002
328 _40_:A1_N 0
329 *36:1 0
*RES
462 _40_:B1 _40_:A1_N 1.6428571428571428
463 _37_:X *36:1 0.4107142857142857
464 *36:2 *36:3 1.8214285714285714
465 _40_:B1 _40_:B1 0
466 _40_:A1_N _40_:A1_N 0
467 _37_:X _37_:X 0
468 *36:1 *36:2 0
469 _40_:B1 *36:3 0
*END

*D_NET *37 0.00047065084663999994
*CONN
*I _39_:B1 I
*I _38_:X O
*CAP
330 *37:1 0.00038132854871999994
331 *37:3 8.932229792e-05
332 _39_:B1 0
333 _38_:X 0
*RES
470 *37:1 *37:2 4.249999999999999
471 *37:3 _38_:X 0.8214285714285714
472 _39_:B1 _39_:B1 0
473 _39_:B1 *37:1 0
474 *37:3 *37:2 0
475 _38_:X _38_:X 0
*END

*D_NET *38 0.0036496275904
*CONN
*I _43_:B2 I
*I psn_inst_psn_buff_3:A I
*I psn_inst_psn_buff_2:A I
*I _39_:X O
*CAP
334 psn_inst_psn_buff_2:A 4.017137184e-05
335 *38:2 0.0008580148713600001
336 *38:1 0.00227230135968
337 psn_inst_psn_buff_3:A 0.0004791399875199999
338 _39_:X 0
339 _43_:B2 0
*RES
476 psn_inst_psn_buff_2:A *38:1 0.30357142857142855
477 *38:2 *38:3 9.714285714285714
478 *38:1 _39_:X 23.82142857142857
479 psn_inst_psn_buff_3:A psn_inst_psn_buff_2:A 4.928571428571428
480 _39_:X _39_:X 0
481 psn_inst_psn_buff_2:A psn_inst_psn_buff_2:A 0
482 _43_:B2 _43_:B2 0
483 _43_:B2 *38:2 0
484 psn_inst_psn_buff_2:A *38:3 0
485 psn_inst_psn_buff_3:A psn_inst_psn_buff_3:A 0
*END

*D_NET *39 0.0005075592738
*CONN
*I _44_:B1 I
*I _44_:A1_N I
*I _41_:X O
*CAP
340 *39:1 0.00014298538739999998
341 _44_:A1_N 4.017137184e-05
342 *39:4 0.00028423114272
343 _44_:B1 4.017137184e-05
344 _41_:X 0
*RES
486 *39:1 *39:2 1.5178571428571426
487 _44_:A1_N *39:3 0.30357142857142855
488 *39:4 *39:3 2.875
489 _44_:B1 *39:4 0.30357142857142855
490 _44_:B1 _44_:B1 0
491 _44_:B1 *39:1 0
492 _41_:X _41_:X 0
493 _41_:X *39:2 0
494 _44_:A1_N _44_:A1_N 0
*END

*D_NET *40 0.00029777202776
*CONN
*I _43_:B1 I
*I _42_:X O
*CAP
345 *40:1 0.00016946796088000002
346 _42_:X 0.00012830406688
347 _43_:B1 0
348 *40:3 0
*RES
495 *40:1 *40:2 1.8214285714285714
496 _42_:X *40:3 1.232142857142857
497 _43_:B1 _43_:B1 0
498 _43_:B1 *40:1 0
499 *40:3 *40:2 0
500 _42_:X _42_:X 0
*END

*D_NET *41 0.00257883015812
*CONN
*I _47_:B2 I
*I psn_inst_psn_buff_1:A I
*I psn_inst_psn_buff_0:A I
*I _43_:X O
*CAP
349 psn_inst_psn_buff_0:A 0.00024524937376
350 *41:2 0.00022243310784000002
351 _47_:B2 0.00012830406688
352 *41:4 4.017137184e-05
353 *41:5 0.0004791399875199999
354 *41:3 0.0006726368570000002
355 psn_inst_psn_buff_1:A 0.00012830406688
356 *41:9 0.00022243310784000002
357 *41:11 0.00044015821855999997
358 _43_:X 0
359 *41:1 0
360 *41:6 0
361 *41:8 0
362 *41:12 0
*RES
501 psn_inst_psn_buff_0:A *41:1 2.464285714285714
502 *41:2 *41:3 2.4285714285714284
503 _47_:B2 *41:4 1.232142857142857
504 *41:4 *41:5 0.30357142857142855
505 *41:5 *41:6 4.928571428571428
506 *41:3 *41:7 7.5892857142857135
507 psn_inst_psn_buff_1:A *41:8 1.232142857142857
508 *41:9 *41:10 2.4285714285714284
509 *41:11 _43_:X 4.517857142857142
510 _43_:X _43_:X 0
511 psn_inst_psn_buff_0:A psn_inst_psn_buff_0:A 0
512 *41:1 *41:2 0
513 *41:11 *41:3 0
514 _47_:B2 _47_:B2 0
515 *41:6 *41:7 0
516 psn_inst_psn_buff_1:A psn_inst_psn_buff_1:A 0
517 *41:8 *41:10 0
518 *41:12 *41:9 0
*END

*D_NET *42 0.00057064441048
*CONN
*I _48_:B1 I
*I _45_:X O
*CAP
363 *42:1 0.00016946796088000002
364 *42:3 0.00040117644959999997
365 _45_:X 0
366 _48_:B1 0
*RES
519 *42:1 *42:2 1.8214285714285714
520 *42:3 _48_:B1 4.107142857142857
521 _45_:X _45_:X 0
522 _45_:X *42:1 0
523 *42:3 *42:2 0
524 _48_:B1 _48_:B1 0
*END

*D_NET *43 0.00024629106332
*CONN
*I _47_:B1 I
*I _46_:X O
*CAP
367 *43:1 0.00019595053436
368 _47_:B1 5.034052896000001e-05
369 _46_:X 0
370 *43:3 0
*RES
525 *43:1 *43:2 2.1249999999999996
526 _47_:B1 *43:3 0.4107142857142857
527 _46_:X _46_:X 0
528 _46_:X *43:1 0
529 *43:3 *43:2 0
530 _47_:B1 _47_:B1 0
*END

*D_NET *44 0.00302634877752
*CONN
*I _48_:B2 I
*I _50_:A2_N I
*I _50_:B1 I
*I _47_:X O
*CAP
371 *44:1 4.017137184e-05
372 *44:2 0.0002062676048
373 *44:3 4.017137184e-05
374 *44:4 5.034052896000001e-05
375 *44:5 0.00016946796088000002
376 _50_:A2_N 4.017137184e-05
377 *44:8 0.00032321291168
378 _50_:B1 4.017137184e-05